Global frequency set at 1000000000000 ticks per second
      0: system.cpu.[tid:0]: Setting integer register integer[2] (2) to 0x7ffffffffffffed0.
gem5 Simulator System.  https://www.gem5.org
gem5 is copyrighted software; use the --copyright option for details.

gem5 version 22.1.0.0
gem5 compiled Feb 22 2023 20:08:12
gem5 started Mar 15 2023 10:59:34
gem5 executing on rp09, pid 843937
command line: build/RISCV/gem5.opt --debug-flags=Registers configs/tutorial/two_level.py

64
Beginning simulation!
  79000: system.cpu.[tid:0]: Setting integer register integer[1] (1) to 0x102a8.
 132000: system.cpu.[tid:0]: Setting integer register integer[3] (3) to 0x7c2d0.
 138000: system.cpu.[tid:0]: Reading integer reg integer[3] (3) as 0x7c2d0.
 138000: system.cpu.[tid:0]: Setting integer register integer[3] (3) to 0x7c0f0.
 140000: system.cpu.[tid:0]: Reading integer reg integer[1] (1) as 0x102a8.
 142000: system.cpu.[tid:0]: Reading integer reg integer[10] (10) as 0.
 142000: system.cpu.[tid:0]: Setting integer register integer[15] (15) to 0.
 146000: system.cpu.[tid:0]: Setting integer register integer[10] (10) to 0x102aa.
 150000: system.cpu.[tid:0]: Reading integer reg integer[10] (10) as 0x102aa.
 150000: system.cpu.[tid:0]: Setting integer register integer[10] (10) to 0x10392.
 152000: system.cpu.[tid:0]: Reading integer reg integer[2] (2) as 0x7ffffffffffffed0.
 219000: system.cpu.[tid:0]: Setting integer register integer[11] (11) to 0x1.
 221000: system.cpu.[tid:0]: Reading integer reg integer[2] (2) as 0x7ffffffffffffed0.
 221000: system.cpu.[tid:0]: Setting integer register integer[12] (12) to 0x7ffffffffffffed8.
 225000: system.cpu.[tid:0]: Reading integer reg integer[2] (2) as 0x7ffffffffffffed0.
 225000: system.cpu.[tid:0]: Setting integer register integer[2] (2) to 0x7ffffffffffffed0.
 229000: system.cpu.[tid:0]: Setting integer register integer[13] (13) to 0x102ba.
 233000: system.cpu.[tid:0]: Reading integer reg integer[13] (13) as 0x102ba.
 233000: system.cpu.[tid:0]: Setting integer register integer[13] (13) to 0x1089a.
 237000: system.cpu.[tid:0]: Setting integer register integer[14] (14) to 0x102c2.
 241000: system.cpu.[tid:0]: Reading integer reg integer[14] (14) as 0x102c2.
 241000: system.cpu.[tid:0]: Setting integer register integer[14] (14) to 0x1092a.
 243000: system.cpu.[tid:0]: Reading integer reg integer[2] (2) as 0x7ffffffffffffed0.
 243000: system.cpu.[tid:0]: Setting integer register integer[16] (16) to 0x7ffffffffffffed0.
 298000: system.cpu.[tid:0]: Reading integer reg integer[2] (2) as 0x7ffffffffffffed0.
 298000: system.cpu.[tid:0]: Setting integer register integer[2] (2) to 0x7ffffffffffffd90.
 304000: system.cpu.[tid:0]: Setting integer register integer[17] (17) to 0.
 306000: system.cpu.[tid:0]: Reading integer reg integer[2] (2) as 0x7ffffffffffffd90.
 306000: system.cpu.[tid:0]: Reading integer reg integer[8] (8) as 0.
 310000: system.cpu.[tid:0]: Reading integer reg integer[2] (2) as 0x7ffffffffffffd90.
 310000: system.cpu.[tid:0]: Reading integer reg integer[9] (9) as 0.
 365000: system.cpu.[tid:0]: Reading integer reg integer[2] (2) as 0x7ffffffffffffd90.
 365000: system.cpu.[tid:0]: Reading integer reg integer[18] (18) as 0.
 369000: system.cpu.[tid:0]: Reading integer reg integer[2] (2) as 0x7ffffffffffffd90.
 369000: system.cpu.[tid:0]: Reading integer reg integer[1] (1) as 0x102a8.
 424000: system.cpu.[tid:0]: Reading integer reg integer[17] (17) as 0.
 424000: system.cpu.[tid:0]: Setting integer register integer[6] (6) to 0.
 430000: system.cpu.[tid:0]: Reading integer reg integer[2] (2) as 0x7ffffffffffffd90.
 430000: system.cpu.[tid:0]: Reading integer reg integer[10] (10) as 0x10392.
 485000: system.cpu.[tid:0]: Reading integer reg integer[2] (2) as 0x7ffffffffffffd90.
 485000: system.cpu.[tid:0]: Reading integer reg integer[11] (11) as 0x1.
 489000: system.cpu.[tid:0]: Reading integer reg integer[2] (2) as 0x7ffffffffffffd90.
 489000: system.cpu.[tid:0]: Reading integer reg integer[12] (12) as 0x7ffffffffffffed8.
 493000: system.cpu.[tid:0]: Reading integer reg integer[15] (15) as 0.
 493000: system.cpu.[tid:0]: Setting integer register integer[18] (18) to 0.
 495000: system.cpu.[tid:0]: Reading integer reg integer[13] (13) as 0x1089a.
 495000: system.cpu.[tid:0]: Setting integer register integer[8] (8) to 0x1089a.
 497000: system.cpu.[tid:0]: Reading integer reg integer[14] (14) as 0x1092a.
 497000: system.cpu.[tid:0]: Setting integer register integer[9] (9) to 0x1092a.
 499000: system.cpu.[tid:0]: Setting integer register integer[15] (15) to 0.
 503000: system.cpu.[tid:0]: Reading integer reg integer[6] (6) as 0.
 505000: system.cpu.[tid:0]: Reading integer reg integer[2] (2) as 0x7ffffffffffffd90.
 507000: system.cpu.[tid:0]: Setting integer register integer[14] (14) to 0x1.
 509000: system.cpu.[tid:0]: Reading integer reg integer[14] (14) as 0x1.
 509000: system.cpu.[tid:0]: Setting integer register integer[10] (10) to 0x2.
 511000: system.cpu.[tid:0]: Reading integer reg integer[2] (2) as 0x7ffffffffffffd90.
 513000: system.cpu.[tid:0]: Setting integer register integer[14] (14) to 0x7ffffffffffffed8.
 515000: system.cpu.[tid:0]: Reading integer reg integer[10] (10) as 0x2.
 515000: system.cpu.[tid:0]: Setting integer register integer[10] (10) to 0x10.
 517000: system.cpu.[tid:0]: Reading integer reg integer[10] (10) as 0x10.
 517000: system.cpu.[tid:0]: Reading integer reg integer[14] (14) as 0x7ffffffffffffed8.
 517000: system.cpu.[tid:0]: Setting integer register integer[10] (10) to 0x7ffffffffffffee8.
 521000: system.cpu.[tid:0]: Reading integer reg integer[3] (3) as 0x7c0f0.
 521000: system.cpu.[tid:0]: Reading integer reg integer[15] (15) as 0.
 592000: system.cpu.[tid:0]: Reading integer reg integer[3] (3) as 0x7c0f0.
 592000: system.cpu.[tid:0]: Reading integer reg integer[10] (10) as 0x7ffffffffffffee8.
 649000: system.cpu.[tid:0]: Setting integer register integer[15] (15) to 0x7a000.
 653000: system.cpu.[tid:0]: Reading integer reg integer[15] (15) as 0x7a000.
 653000: system.cpu.[tid:0]: Reading integer reg integer[16] (16) as 0x7ffffffffffffed0.
 722000: system.cpu.[tid:0]: Reading integer reg integer[10] (10) as 0x7ffffffffffffee8.
 722000: system.cpu.[tid:0]: Setting integer register integer[10] (10) to 0x7ffffffffffffef0.
 724000: system.cpu.[tid:0]: Reading integer reg integer[10] (10) as 0x7ffffffffffffef0.
 726000: system.cpu.[tid:0]: Setting integer register integer[15] (15) to 0.
 779000: system.cpu.[tid:0]: Reading integer reg integer[15] (15) as 0.
 787000: system.cpu.[tid:0]: Setting integer register integer[1] (1) to 0x10406.
 854000: system.cpu.[tid:0]: Reading integer reg integer[10] (10) as 0x7ffffffffffffef0.
 856000: system.cpu.[tid:0]: Setting integer register integer[15] (15) to 0x9.
 860000: system.cpu.[tid:0]: Setting integer register integer[14] (14) to 0x7d000.
 915000: system.cpu.[tid:0]: Reading integer reg integer[14] (14) as 0x7d000.
 915000: system.cpu.[tid:0]: Reading integer reg integer[10] (10) as 0x7ffffffffffffef0.
 986000: system.cpu.[tid:0]: Reading integer reg integer[15] (15) as 0x9.
 990000: system.cpu.[tid:0]: Setting integer register integer[30] (30) to 0x7d000.
 994000: system.cpu.[tid:0]: Reading integer reg integer[30] (30) as 0x7d000.
1047000: system.cpu.[tid:0]: Setting integer register integer[14] (14) to 0.
1049000: system.cpu.[tid:0]: Reading integer reg integer[2] (2) as 0x7ffffffffffffd90.
1049000: system.cpu.[tid:0]: Setting integer register integer[2] (2) to 0x7ffffffffffffcb0.
1051000: system.cpu.[tid:0]: Reading integer reg integer[2] (2) as 0x7ffffffffffffcb0.
1051000: system.cpu.[tid:0]: Reading integer reg integer[14] (14) as 0.
1108000: system.cpu.[tid:0]: Reading integer reg integer[3] (3) as 0x7c0f0.
1110000: system.cpu.[tid:0]: Setting integer register integer[14] (14) to 0.
1114000: system.cpu.[tid:0]: Setting integer register integer[11] (11) to 0x7a000.
1118000: system.cpu.[tid:0]: Reading integer reg integer[11] (11) as 0x7a000.
1118000: system.cpu.[tid:0]: Setting integer register integer[11] (11) to 0x79fa0.
1120000: system.cpu.[tid:0]: Reading integer reg integer[2] (2) as 0x7ffffffffffffcb0.
1120000: system.cpu.[tid:0]: Reading integer reg integer[14] (14) as 0.
1124000: system.cpu.[tid:0]: Reading integer reg integer[11] (11) as 0x79fa0.
1126000: system.cpu.[tid:0]: Setting integer register integer[14] (14) to 0.
1130000: system.cpu.[tid:0]: Setting integer register integer[28] (28) to 0x7a000.
1134000: system.cpu.[tid:0]: Setting integer register integer[6] (6) to 0x7d000.
1136000: system.cpu.[tid:0]: Reading integer reg integer[2] (2) as 0x7ffffffffffffcb0.
1136000: system.cpu.[tid:0]: Reading integer reg integer[14] (14) as 0.
1191000: system.cpu.[tid:0]: Reading integer reg integer[28] (28) as 0x7a000.
1193000: system.cpu.[tid:0]: Setting integer register integer[14] (14) to 0x1.
1195000: system.cpu.[tid:0]: Reading integer reg integer[2] (2) as 0x7ffffffffffffcb0.
1195000: system.cpu.[tid:0]: Reading integer reg integer[14] (14) as 0x1.
1201000: system.cpu.[tid:0]: Reading integer reg integer[6] (6) as 0x7d000.
1254000: system.cpu.[tid:0]: Setting integer register integer[14] (14) to 0.
1256000: system.cpu.[tid:0]: Reading integer reg integer[2] (2) as 0x7ffffffffffffcb0.
1256000: system.cpu.[tid:0]: Reading integer reg integer[8] (8) as 0x1089a.
1260000: system.cpu.[tid:0]: Setting integer register integer[8] (8) to 0x7d000.
1262000: system.cpu.[tid:0]: Reading integer reg integer[2] (2) as 0x7ffffffffffffcb0.
1262000: system.cpu.[tid:0]: Reading integer reg integer[14] (14) as 0.
1319000: system.cpu.[tid:0]: Reading integer reg integer[3] (3) as 0x7c0f0.
1321000: system.cpu.[tid:0]: Setting integer register integer[14] (14) to 0.
1323000: system.cpu.[tid:0]: Reading integer reg integer[2] (2) as 0x7ffffffffffffcb0.
1323000: system.cpu.[tid:0]: Reading integer reg integer[20] (20) as 0.
1378000: system.cpu.[tid:0]: Reading integer reg integer[2] (2) as 0x7ffffffffffffcb0.
1378000: system.cpu.[tid:0]: Reading integer reg integer[14] (14) as 0.
1384000: system.cpu.[tid:0]: Reading integer reg integer[3] (3) as 0x7c0f0.
1386000: system.cpu.[tid:0]: Setting integer register integer[14] (14) to 0.
1388000: system.cpu.[tid:0]: Reading integer reg integer[2] (2) as 0x7ffffffffffffcb0.
1388000: system.cpu.[tid:0]: Reading integer reg integer[9] (9) as 0x1092a.
1392000: system.cpu.[tid:0]: Reading integer reg integer[2] (2) as 0x7ffffffffffffcb0.
1392000: system.cpu.[tid:0]: Reading integer reg integer[18] (18) as 0.
1396000: system.cpu.[tid:0]: Reading integer reg integer[2] (2) as 0x7ffffffffffffcb0.
1396000: system.cpu.[tid:0]: Reading integer reg integer[14] (14) as 0.
1451000: system.cpu.[tid:0]: Reading integer reg integer[8] (8) as 0x7d000.
1453000: system.cpu.[tid:0]: Setting integer register integer[14] (14) to 0.
1455000: system.cpu.[tid:0]: Reading integer reg integer[2] (2) as 0x7ffffffffffffcb0.
1455000: system.cpu.[tid:0]: Reading integer reg integer[19] (19) as 0.
1461000: system.cpu.[tid:0]: Setting integer register integer[9] (9) to 0x7d000.
1463000: system.cpu.[tid:0]: Reading integer reg integer[2] (2) as 0x7ffffffffffffcb0.
1463000: system.cpu.[tid:0]: Reading integer reg integer[14] (14) as 0.
1467000: system.cpu.[tid:0]: Reading integer reg integer[3] (3) as 0x7c0f0.
1520000: system.cpu.[tid:0]: Setting integer register integer[14] (14) to 0x1000.
1522000: system.cpu.[tid:0]: Setting integer register integer[19] (19) to 0x7d000.
1524000: system.cpu.[tid:0]: Setting integer register integer[18] (18) to 0x7d000.
1526000: system.cpu.[tid:0]: Reading integer reg integer[2] (2) as 0x7ffffffffffffcb0.
1526000: system.cpu.[tid:0]: Reading integer reg integer[14] (14) as 0x1000.
1532000: system.cpu.[tid:0]: Setting integer register integer[14] (14) to 0x5c000.
1534000: system.cpu.[tid:0]: Reading integer reg integer[2] (2) as 0x7ffffffffffffcb0.
1534000: system.cpu.[tid:0]: Reading integer reg integer[21] (21) as 0.
1538000: system.cpu.[tid:0]: Reading integer reg integer[2] (2) as 0x7ffffffffffffcb0.
1538000: system.cpu.[tid:0]: Reading integer reg integer[22] (22) as 0.
1542000: system.cpu.[tid:0]: Reading integer reg integer[2] (2) as 0x7ffffffffffffcb0.
1542000: system.cpu.[tid:0]: Reading integer reg integer[23] (23) as 0.
1546000: system.cpu.[tid:0]: Reading integer reg integer[2] (2) as 0x7ffffffffffffcb0.
1546000: system.cpu.[tid:0]: Reading integer reg integer[25] (25) as 0.
1550000: system.cpu.[tid:0]: Reading integer reg integer[2] (2) as 0x7ffffffffffffcb0.
1550000: system.cpu.[tid:0]: Reading integer reg integer[26] (26) as 0.
1554000: system.cpu.[tid:0]: Reading integer reg integer[2] (2) as 0x7ffffffffffffcb0.
1554000: system.cpu.[tid:0]: Reading integer reg integer[27] (27) as 0.
1558000: system.cpu.[tid:0]: Reading integer reg integer[2] (2) as 0x7ffffffffffffcb0.
1558000: system.cpu.[tid:0]: Reading integer reg integer[24] (24) as 0.
1562000: system.cpu.[tid:0]: Reading integer reg integer[19] (19) as 0x7d000.
1564000: system.cpu.[tid:0]: Setting integer register integer[26] (26) to 0.
1617000: system.cpu.[tid:0]: Reading integer reg integer[9] (9) as 0x7d000.
1619000: system.cpu.[tid:0]: Setting integer register integer[22] (22) to 0.
1621000: system.cpu.[tid:0]: Setting integer register integer[21] (21) to 0.
1625000: system.cpu.[tid:0]: Reading integer reg integer[18] (18) as 0x7d000.
1627000: system.cpu.[tid:0]: Setting integer register integer[24] (24) to 0.
1629000: system.cpu.[tid:0]: Setting integer register integer[23] (23) to 0.
1631000: system.cpu.[tid:0]: Reading integer reg integer[2] (2) as 0x7ffffffffffffcb0.
1635000: system.cpu.[tid:0]: Reading integer reg integer[2] (2) as 0x7ffffffffffffcb0.
1639000: system.cpu.[tid:0]: Reading integer reg integer[2] (2) as 0x7ffffffffffffcb0.
1643000: system.cpu.[tid:0]: Reading integer reg integer[2] (2) as 0x7ffffffffffffcb0.
1647000: system.cpu.[tid:0]: Reading integer reg integer[2] (2) as 0x7ffffffffffffcb0.
1651000: system.cpu.[tid:0]: Reading integer reg integer[2] (2) as 0x7ffffffffffffcb0.
1655000: system.cpu.[tid:0]: Reading integer reg integer[2] (2) as 0x7ffffffffffffcb0.
1659000: system.cpu.[tid:0]: Setting integer register integer[25] (25) to 0.
1661000: system.cpu.[tid:0]: Setting integer register integer[27] (27) to 0.
1663000: system.cpu.[tid:0]: Setting integer register integer[29] (29) to 0.
1665000: system.cpu.[tid:0]: Setting integer register integer[17] (17) to 0.
1667000: system.cpu.[tid:0]: Setting integer register integer[16] (16) to 0.
1669000: system.cpu.[tid:0]: Setting integer register integer[12] (12) to 0.
1671000: system.cpu.[tid:0]: Setting integer register integer[13] (13) to 0x1e.
1673000: system.cpu.[tid:0]: Reading integer reg integer[14] (14) as 0x5c000.
1673000: system.cpu.[tid:0]: Setting integer register integer[14] (14) to 0x5c390.
1675000: system.cpu.[tid:0]: Reading integer reg integer[15] (15) as 0x9.
1675000: system.cpu.[tid:0]: Setting integer register integer[15] (15) to 0x6.
1679000: system.cpu.[tid:0]: Reading integer reg integer[13] (13) as 0x1e.
1679000: system.cpu.[tid:0]: Reading integer reg integer[15] (15) as 0x6.
1681000: system.cpu.[tid:0]: Reading integer reg integer[15] (15) as 0x6.
1681000: system.cpu.[tid:0]: Setting integer register integer[15] (15) to 0x18.
1683000: system.cpu.[tid:0]: Reading integer reg integer[15] (15) as 0x18.
1683000: system.cpu.[tid:0]: Reading integer reg integer[14] (14) as 0x5c390.
1683000: system.cpu.[tid:0]: Setting integer register integer[15] (15) to 0x5c3a8.
1685000: system.cpu.[tid:0]: Reading integer reg integer[15] (15) as 0x5c3a8.
1766000: system.cpu.[tid:0]: Setting integer register integer[15] (15) to 0x21dc2.
1768000: system.cpu.[tid:0]: Reading integer reg integer[15] (15) as 0x21dc2.
1821000: system.cpu.[tid:0]: Reading integer reg integer[10] (10) as 0x7ffffffffffffef0.
1821000: system.cpu.[tid:0]: Setting integer register integer[10] (10) to 0x7fffffffffffff00.
1827000: system.cpu.[tid:0]: Reading integer reg integer[10] (10) as 0x7fffffffffffff00.
1880000: system.cpu.[tid:0]: Setting integer register integer[15] (15) to 0x5.
1882000: system.cpu.[tid:0]: Reading integer reg integer[15] (15) as 0x5.
1884000: system.cpu.[tid:0]: Reading integer reg integer[15] (15) as 0x5.
1884000: system.cpu.[tid:0]: Setting integer register integer[15] (15) to 0x2.
1888000: system.cpu.[tid:0]: Reading integer reg integer[13] (13) as 0x1e.
1888000: system.cpu.[tid:0]: Reading integer reg integer[15] (15) as 0x2.
1890000: system.cpu.[tid:0]: Reading integer reg integer[15] (15) as 0x2.
1890000: system.cpu.[tid:0]: Setting integer register integer[15] (15) to 0x8.
1892000: system.cpu.[tid:0]: Reading integer reg integer[15] (15) as 0x8.
1892000: system.cpu.[tid:0]: Reading integer reg integer[14] (14) as 0x5c390.
1892000: system.cpu.[tid:0]: Setting integer register integer[15] (15) to 0x5c398.
1894000: system.cpu.[tid:0]: Reading integer reg integer[15] (15) as 0x5c398.
1896000: system.cpu.[tid:0]: Setting integer register integer[15] (15) to 0x21f34.
1898000: system.cpu.[tid:0]: Reading integer reg integer[15] (15) as 0x21f34.
1951000: system.cpu.[tid:0]: Reading integer reg integer[10] (10) as 0x7fffffffffffff00.
1953000: system.cpu.[tid:0]: Setting integer register integer[22] (22) to 0x5.
1955000: system.cpu.[tid:0]: Reading integer reg integer[10] (10) as 0x7fffffffffffff00.
1955000: system.cpu.[tid:0]: Setting integer register integer[10] (10) to 0x7fffffffffffff10.
1957000: system.cpu.[tid:0]: Setting integer register integer[23] (23) to 0x1.
1959000: system.cpu.[tid:0]: Reading integer reg integer[10] (10) as 0x7fffffffffffff10.
1961000: system.cpu.[tid:0]: Setting integer register integer[15] (15) to 0x4.
2016000: system.cpu.[tid:0]: Reading integer reg integer[15] (15) as 0x4.
2018000: system.cpu.[tid:0]: Reading integer reg integer[15] (15) as 0x4.
2018000: system.cpu.[tid:0]: Setting integer register integer[15] (15) to 0x1.
2022000: system.cpu.[tid:0]: Reading integer reg integer[13] (13) as 0x1e.
2022000: system.cpu.[tid:0]: Reading integer reg integer[15] (15) as 0x1.
2024000: system.cpu.[tid:0]: Reading integer reg integer[15] (15) as 0x1.
2024000: system.cpu.[tid:0]: Setting integer register integer[15] (15) to 0x4.
2026000: system.cpu.[tid:0]: Reading integer reg integer[15] (15) as 0x4.
2026000: system.cpu.[tid:0]: Reading integer reg integer[14] (14) as 0x5c390.
2026000: system.cpu.[tid:0]: Setting integer register integer[15] (15) to 0x5c394.
2028000: system.cpu.[tid:0]: Reading integer reg integer[15] (15) as 0x5c394.
2030000: system.cpu.[tid:0]: Setting integer register integer[15] (15) to 0x21dc2.
2032000: system.cpu.[tid:0]: Reading integer reg integer[15] (15) as 0x21dc2.
2034000: system.cpu.[tid:0]: Reading integer reg integer[10] (10) as 0x7fffffffffffff10.
2034000: system.cpu.[tid:0]: Setting integer register integer[10] (10) to 0x7fffffffffffff20.
2036000: system.cpu.[tid:0]: Reading integer reg integer[10] (10) as 0x7fffffffffffff20.
2038000: system.cpu.[tid:0]: Setting integer register integer[15] (15) to 0x3.
2040000: system.cpu.[tid:0]: Reading integer reg integer[15] (15) as 0x3.
2042000: system.cpu.[tid:0]: Reading integer reg integer[15] (15) as 0x3.
2042000: system.cpu.[tid:0]: Setting integer register integer[15] (15) to 0.
2046000: system.cpu.[tid:0]: Reading integer reg integer[13] (13) as 0x1e.
2046000: system.cpu.[tid:0]: Reading integer reg integer[15] (15) as 0.
2048000: system.cpu.[tid:0]: Reading integer reg integer[15] (15) as 0.
2048000: system.cpu.[tid:0]: Setting integer register integer[15] (15) to 0.
2050000: system.cpu.[tid:0]: Reading integer reg integer[15] (15) as 0.
2050000: system.cpu.[tid:0]: Reading integer reg integer[14] (14) as 0x5c390.
2050000: system.cpu.[tid:0]: Setting integer register integer[15] (15) to 0x5c390.
2052000: system.cpu.[tid:0]: Reading integer reg integer[15] (15) as 0x5c390.
2054000: system.cpu.[tid:0]: Setting integer register integer[15] (15) to 0x21f44.
2056000: system.cpu.[tid:0]: Reading integer reg integer[15] (15) as 0x21f44.
2058000: system.cpu.[tid:0]: Reading integer reg integer[10] (10) as 0x7fffffffffffff20.
2060000: system.cpu.[tid:0]: Setting integer register integer[24] (24) to 0x10040.
2062000: system.cpu.[tid:0]: Reading integer reg integer[10] (10) as 0x7fffffffffffff20.
2062000: system.cpu.[tid:0]: Setting integer register integer[10] (10) to 0x7fffffffffffff30.
2064000: system.cpu.[tid:0]: Setting integer register integer[25] (25) to 0x1.
2066000: system.cpu.[tid:0]: Reading integer reg integer[10] (10) as 0x7fffffffffffff30.
2068000: system.cpu.[tid:0]: Setting integer register integer[15] (15) to 0x6.
2072000: system.cpu.[tid:0]: Reading integer reg integer[15] (15) as 0x6.
2074000: system.cpu.[tid:0]: Reading integer reg integer[15] (15) as 0x6.
2074000: system.cpu.[tid:0]: Setting integer register integer[15] (15) to 0x3.
2078000: system.cpu.[tid:0]: Reading integer reg integer[13] (13) as 0x1e.
2078000: system.cpu.[tid:0]: Reading integer reg integer[15] (15) as 0x3.
2080000: system.cpu.[tid:0]: Reading integer reg integer[15] (15) as 0x3.
2080000: system.cpu.[tid:0]: Setting integer register integer[15] (15) to 0xc.
2082000: system.cpu.[tid:0]: Reading integer reg integer[15] (15) as 0xc.
2082000: system.cpu.[tid:0]: Reading integer reg integer[14] (14) as 0x5c390.
2082000: system.cpu.[tid:0]: Setting integer register integer[15] (15) to 0x5c39c.
2084000: system.cpu.[tid:0]: Reading integer reg integer[15] (15) as 0x5c39c.
2086000: system.cpu.[tid:0]: Setting integer register integer[15] (15) to 0x21dba.
2088000: system.cpu.[tid:0]: Reading integer reg integer[15] (15) as 0x21dba.
2090000: system.cpu.[tid:0]: Reading integer reg integer[10] (10) as 0x7fffffffffffff30.
2092000: system.cpu.[tid:0]: Setting integer register integer[15] (15) to 0x1000.
2094000: system.cpu.[tid:0]: Reading integer reg integer[15] (15) as 0x1000.
2096000: system.cpu.[tid:0]: Reading integer reg integer[2] (2) as 0x7ffffffffffffcb0.
2096000: system.cpu.[tid:0]: Reading integer reg integer[15] (15) as 0x1000.
2100000: system.cpu.[tid:0]: Setting integer register integer[29] (29) to 0x1.
2102000: system.cpu.[tid:0]: Reading integer reg integer[10] (10) as 0x7fffffffffffff30.
2102000: system.cpu.[tid:0]: Setting integer register integer[10] (10) to 0x7fffffffffffff40.
2104000: system.cpu.[tid:0]: Reading integer reg integer[10] (10) as 0x7fffffffffffff40.
2157000: system.cpu.[tid:0]: Setting integer register integer[15] (15) to 0x17.
2159000: system.cpu.[tid:0]: Reading integer reg integer[15] (15) as 0x17.
2161000: system.cpu.[tid:0]: Reading integer reg integer[15] (15) as 0x17.
2161000: system.cpu.[tid:0]: Setting integer register integer[15] (15) to 0x14.
2165000: system.cpu.[tid:0]: Reading integer reg integer[13] (13) as 0x1e.
2165000: system.cpu.[tid:0]: Reading integer reg integer[15] (15) as 0x14.
2167000: system.cpu.[tid:0]: Reading integer reg integer[15] (15) as 0x14.
2167000: system.cpu.[tid:0]: Setting integer register integer[15] (15) to 0x50.
2169000: system.cpu.[tid:0]: Reading integer reg integer[15] (15) as 0x50.
2169000: system.cpu.[tid:0]: Reading integer reg integer[14] (14) as 0x5c390.
2169000: system.cpu.[tid:0]: Setting integer register integer[15] (15) to 0x5c3e0.
2171000: system.cpu.[tid:0]: Reading integer reg integer[15] (15) as 0x5c3e0.
2224000: system.cpu.[tid:0]: Setting integer register integer[15] (15) to 0x21e84.
2226000: system.cpu.[tid:0]: Reading integer reg integer[15] (15) as 0x21e84.
2279000: system.cpu.[tid:0]: Reading integer reg integer[10] (10) as 0x7fffffffffffff40.
2281000: system.cpu.[tid:0]: Setting integer register integer[15] (15) to 0.
2283000: system.cpu.[tid:0]: Reading integer reg integer[10] (10) as 0x7fffffffffffff40.
2283000: system.cpu.[tid:0]: Setting integer register integer[10] (10) to 0x7fffffffffffff50.
2285000: system.cpu.[tid:0]: Setting integer register integer[12] (12) to 0xffffffffffffffff.
2287000: system.cpu.[tid:0]: Reading integer reg integer[2] (2) as 0x7ffffffffffffcb0.
2287000: system.cpu.[tid:0]: Reading integer reg integer[15] (15) as 0.
2291000: system.cpu.[tid:0]: Setting integer register integer[15] (15) to 0x1.
2293000: system.cpu.[tid:0]: Reading integer reg integer[2] (2) as 0x7ffffffffffffcb0.
2293000: system.cpu.[tid:0]: Reading integer reg integer[15] (15) as 0x1.
2297000: system.cpu.[tid:0]: Reading integer reg integer[2] (2) as 0x7ffffffffffffcb0.
2297000: system.cpu.[tid:0]: Reading integer reg integer[15] (15) as 0x1.
2301000: system.cpu.[tid:0]: Reading integer reg integer[2] (2) as 0x7ffffffffffffcb0.
2301000: system.cpu.[tid:0]: Reading integer reg integer[15] (15) as 0x1.
2305000: system.cpu.[tid:0]: Reading integer reg integer[10] (10) as 0x7fffffffffffff50.
2307000: system.cpu.[tid:0]: Setting integer register integer[15] (15) to 0x19.
2309000: system.cpu.[tid:0]: Reading integer reg integer[15] (15) as 0x19.
2311000: system.cpu.[tid:0]: Reading integer reg integer[15] (15) as 0x19.
2311000: system.cpu.[tid:0]: Setting integer register integer[15] (15) to 0x16.
2315000: system.cpu.[tid:0]: Reading integer reg integer[13] (13) as 0x1e.
2315000: system.cpu.[tid:0]: Reading integer reg integer[15] (15) as 0x16.
2317000: system.cpu.[tid:0]: Reading integer reg integer[15] (15) as 0x16.
2317000: system.cpu.[tid:0]: Setting integer register integer[15] (15) to 0x58.
2319000: system.cpu.[tid:0]: Reading integer reg integer[15] (15) as 0x58.
2319000: system.cpu.[tid:0]: Reading integer reg integer[14] (14) as 0x5c390.
2319000: system.cpu.[tid:0]: Setting integer register integer[15] (15) to 0x5c3e8.
2321000: system.cpu.[tid:0]: Reading integer reg integer[15] (15) as 0x5c3e8.
2323000: system.cpu.[tid:0]: Setting integer register integer[15] (15) to 0x21e74.
2325000: system.cpu.[tid:0]: Reading integer reg integer[15] (15) as 0x21e74.
2378000: system.cpu.[tid:0]: Reading integer reg integer[10] (10) as 0x7fffffffffffff50.
2380000: system.cpu.[tid:0]: Setting integer register integer[15] (15) to 0x7fffffffffffff78.
2382000: system.cpu.[tid:0]: Reading integer reg integer[10] (10) as 0x7fffffffffffff50.
2382000: system.cpu.[tid:0]: Setting integer register integer[10] (10) to 0x7fffffffffffff60.
2384000: system.cpu.[tid:0]: Reading integer reg integer[2] (2) as 0x7ffffffffffffcb0.
2384000: system.cpu.[tid:0]: Reading integer reg integer[15] (15) as 0x7fffffffffffff78.
2388000: system.cpu.[tid:0]: Setting integer register integer[15] (15) to 0x1.
2390000: system.cpu.[tid:0]: Reading integer reg integer[2] (2) as 0x7ffffffffffffcb0.
2390000: system.cpu.[tid:0]: Reading integer reg integer[15] (15) as 0x1.
2394000: system.cpu.[tid:0]: Reading integer reg integer[10] (10) as 0x7fffffffffffff60.
2396000: system.cpu.[tid:0]: Setting integer register integer[15] (15) to 0.
2398000: system.cpu.[tid:0]: Reading integer reg integer[15] (15) as 0.
2402000: system.cpu.[tid:0]: Reading integer reg integer[29] (29) as 0x1.
2404000: system.cpu.[tid:0]: Reading integer reg integer[2] (2) as 0x7ffffffffffffcb0.
2406000: system.cpu.[tid:0]: Setting integer register integer[15] (15) to 0x1000.
2410000: system.cpu.[tid:0]: Reading integer reg integer[3] (3) as 0x7c0f0.
2410000: system.cpu.[tid:0]: Reading integer reg integer[15] (15) as 0x1000.
2416000: system.cpu.[tid:0]: Reading integer reg integer[27] (27) as 0.
2418000: system.cpu.[tid:0]: Reading integer reg integer[25] (25) as 0x1.
2420000: system.cpu.[tid:0]: Reading integer reg integer[18] (18) as 0x7d000.
2420000: system.cpu.[tid:0]: Reading integer reg integer[24] (24) as 0x10040.
2424000: system.cpu.[tid:0]: Reading integer reg integer[23] (23) as 0x1.
2426000: system.cpu.[tid:0]: Reading integer reg integer[9] (9) as 0x7d000.
2426000: system.cpu.[tid:0]: Reading integer reg integer[22] (22) as 0x5.
2430000: system.cpu.[tid:0]: Reading integer reg integer[21] (21) as 0.
2432000: system.cpu.[tid:0]: Reading integer reg integer[2] (2) as 0x7ffffffffffffcb0.
2434000: system.cpu.[tid:0]: Setting integer register integer[15] (15) to 0.
2436000: system.cpu.[tid:0]: Reading integer reg integer[15] (15) as 0.
2438000: system.cpu.[tid:0]: Reading integer reg integer[2] (2) as 0x7ffffffffffffcb0.
2440000: system.cpu.[tid:0]: Setting integer register integer[15] (15) to 0.
2442000: system.cpu.[tid:0]: Reading integer reg integer[15] (15) as 0.
2495000: system.cpu.[tid:0]: Reading integer reg integer[2] (2) as 0x7ffffffffffffcb0.
2497000: system.cpu.[tid:0]: Setting integer register integer[15] (15) to 0.
2499000: system.cpu.[tid:0]: Reading integer reg integer[15] (15) as 0.
2501000: system.cpu.[tid:0]: Reading integer reg integer[2] (2) as 0x7ffffffffffffcb0.
2503000: system.cpu.[tid:0]: Setting integer register integer[15] (15) to 0.
2505000: system.cpu.[tid:0]: Reading integer reg integer[15] (15) as 0.
2507000: system.cpu.[tid:0]: Reading integer reg integer[2] (2) as 0x7ffffffffffffcb0.
2509000: system.cpu.[tid:0]: Setting integer register integer[15] (15) to 0x1.
2511000: system.cpu.[tid:0]: Reading integer reg integer[15] (15) as 0x1.
2513000: system.cpu.[tid:0]: Reading integer reg integer[2] (2) as 0x7ffffffffffffcb0.
2515000: system.cpu.[tid:0]: Setting integer register integer[15] (15) to 0.
2517000: system.cpu.[tid:0]: Reading integer reg integer[28] (28) as 0x7a000.
2517000: system.cpu.[tid:0]: Reading integer reg integer[15] (15) as 0.
2521000: system.cpu.[tid:0]: Reading integer reg integer[2] (2) as 0x7ffffffffffffcb0.
2523000: system.cpu.[tid:0]: Setting integer register integer[15] (15) to 0x1.
2525000: system.cpu.[tid:0]: Reading integer reg integer[15] (15) as 0x1.
2527000: system.cpu.[tid:0]: Reading integer reg integer[2] (2) as 0x7ffffffffffffcb0.
2529000: system.cpu.[tid:0]: Setting integer register integer[15] (15) to 0x1.
2533000: system.cpu.[tid:0]: Reading integer reg integer[6] (6) as 0x7d000.
2533000: system.cpu.[tid:0]: Reading integer reg integer[15] (15) as 0x1.
2537000: system.cpu.[tid:0]: Reading integer reg integer[2] (2) as 0x7ffffffffffffcb0.
2539000: system.cpu.[tid:0]: Setting integer register integer[15] (15) to 0x1.
2541000: system.cpu.[tid:0]: Reading integer reg integer[15] (15) as 0x1.
2543000: system.cpu.[tid:0]: Reading integer reg integer[2] (2) as 0x7ffffffffffffcb0.
2545000: system.cpu.[tid:0]: Setting integer register integer[15] (15) to 0x7fffffffffffff78.
2547000: system.cpu.[tid:0]: Reading integer reg integer[11] (11) as 0x79fa0.
2547000: system.cpu.[tid:0]: Reading integer reg integer[15] (15) as 0x7fffffffffffff78.
2551000: system.cpu.[tid:0]: Setting integer register integer[15] (15) to 0xf.
2553000: system.cpu.[tid:0]: Reading integer reg integer[12] (12) as 0xffffffffffffffff.
2553000: system.cpu.[tid:0]: Reading integer reg integer[15] (15) as 0xf.
2555000: system.cpu.[tid:0]: Reading integer reg integer[2] (2) as 0x7ffffffffffffcb0.
2557000: system.cpu.[tid:0]: Setting integer register integer[8] (8) to 0x1089a.
2559000: system.cpu.[tid:0]: Reading integer reg integer[2] (2) as 0x7ffffffffffffcb0.
2561000: system.cpu.[tid:0]: Setting integer register integer[9] (9) to 0x1092a.
2563000: system.cpu.[tid:0]: Reading integer reg integer[2] (2) as 0x7ffffffffffffcb0.
2565000: system.cpu.[tid:0]: Setting integer register integer[18] (18) to 0.
2567000: system.cpu.[tid:0]: Reading integer reg integer[2] (2) as 0x7ffffffffffffcb0.
2569000: system.cpu.[tid:0]: Setting integer register integer[19] (19) to 0.
2571000: system.cpu.[tid:0]: Reading integer reg integer[2] (2) as 0x7ffffffffffffcb0.
2573000: system.cpu.[tid:0]: Setting integer register integer[20] (20) to 0.
2575000: system.cpu.[tid:0]: Reading integer reg integer[2] (2) as 0x7ffffffffffffcb0.
2577000: system.cpu.[tid:0]: Setting integer register integer[21] (21) to 0.
2579000: system.cpu.[tid:0]: Reading integer reg integer[2] (2) as 0x7ffffffffffffcb0.
2581000: system.cpu.[tid:0]: Setting integer register integer[22] (22) to 0.
2583000: system.cpu.[tid:0]: Reading integer reg integer[2] (2) as 0x7ffffffffffffcb0.
2585000: system.cpu.[tid:0]: Setting integer register integer[23] (23) to 0.
2587000: system.cpu.[tid:0]: Reading integer reg integer[2] (2) as 0x7ffffffffffffcb0.
2589000: system.cpu.[tid:0]: Setting integer register integer[24] (24) to 0.
2591000: system.cpu.[tid:0]: Reading integer reg integer[2] (2) as 0x7ffffffffffffcb0.
2593000: system.cpu.[tid:0]: Setting integer register integer[25] (25) to 0.
2595000: system.cpu.[tid:0]: Reading integer reg integer[2] (2) as 0x7ffffffffffffcb0.
2597000: system.cpu.[tid:0]: Setting integer register integer[26] (26) to 0.
2599000: system.cpu.[tid:0]: Reading integer reg integer[2] (2) as 0x7ffffffffffffcb0.
2601000: system.cpu.[tid:0]: Setting integer register integer[27] (27) to 0.
2603000: system.cpu.[tid:0]: Reading integer reg integer[2] (2) as 0x7ffffffffffffcb0.
2603000: system.cpu.[tid:0]: Setting integer register integer[2] (2) to 0x7ffffffffffffd90.
2605000: system.cpu.[tid:0]: Reading integer reg integer[1] (1) as 0x10406.
2609000: system.cpu.[tid:0]: Setting integer register integer[15] (15) to 0x7d000.
2613000: system.cpu.[tid:0]: Reading integer reg integer[15] (15) as 0x7d000.
2615000: system.cpu.[tid:0]: Setting integer register integer[14] (14) to 0x10040.
2619000: system.cpu.[tid:0]: Reading integer reg integer[14] (14) as 0x10040.
2623000: system.cpu.[tid:0]: Reading integer reg integer[3] (3) as 0x7c0f0.
2625000: system.cpu.[tid:0]: Setting integer register integer[15] (15) to 0.
2629000: system.cpu.[tid:0]: Reading integer reg integer[15] (15) as 0.
2682000: system.cpu.[tid:0]: Setting integer register integer[1] (1) to 0x10540.
2749000: system.cpu.[tid:0]: Reading integer reg integer[2] (2) as 0x7ffffffffffffd90.
2749000: system.cpu.[tid:0]: Setting integer register integer[2] (2) to 0x7ffffffffffffba0.
2755000: system.cpu.[tid:0]: Reading integer reg integer[2] (2) as 0x7ffffffffffffba0.
2755000: system.cpu.[tid:0]: Setting integer register integer[10] (10) to 0x7ffffffffffffbe8.
2757000: system.cpu.[tid:0]: Reading integer reg integer[2] (2) as 0x7ffffffffffffba0.
2757000: system.cpu.[tid:0]: Reading integer reg integer[1] (1) as 0x10540.
2761000: system.cpu.[tid:0]: Reading integer reg integer[2] (2) as 0x7ffffffffffffba0.
2761000: system.cpu.[tid:0]: Reading integer reg integer[8] (8) as 0x1089a.
2765000: system.cpu.[tid:0]: Reading integer reg integer[2] (2) as 0x7ffffffffffffba0.
2765000: system.cpu.[tid:0]: Reading integer reg integer[9] (9) as 0x1092a.
2769000: system.cpu.[tid:0]: Setting integer register integer[1] (1) to 0x2275c.
2850000: system.cpu.[tid:0]: Setting integer register integer[17] (17) to 0xa0.
2856000: system.cpu.[tid:0]: Reading integer reg integer[17] (17) as 0xa0.
2856000: system.cpu.[tid:0]: Reading integer reg integer[10] (10) as 0x7ffffffffffffbe8.
2856000: system.cpu.[tid:0]: Setting integer register integer[10] (10) to 0.
2858000: system.cpu.[tid:0]: Reading integer reg integer[10] (10) as 0.
2860000: system.cpu.[tid:0]: Reading integer reg integer[1] (1) as 0x2275c.
2862000: system.cpu.[tid:0]: Reading integer reg integer[2] (2) as 0x7ffffffffffffba0.
2862000: system.cpu.[tid:0]: Setting integer register integer[13] (13) to 0x7ffffffffffffc6a.
2864000: system.cpu.[tid:0]: Reading integer reg integer[10] (10) as 0.
2866000: system.cpu.[tid:0]: Setting integer register integer[6] (6) to 0.
2868000: system.cpu.[tid:0]: Setting integer register integer[10] (10) to 0.
2870000: system.cpu.[tid:0]: Setting integer register integer[17] (17) to 0x9.
2872000: system.cpu.[tid:0]: Setting integer register integer[28] (28) to 0x2e.
2874000: system.cpu.[tid:0]: Setting integer register integer[29] (29) to 0x3.
2878000: system.cpu.[tid:0]: Reading integer reg integer[13] (13) as 0x7ffffffffffffc6a.
2931000: system.cpu.[tid:0]: Setting integer register integer[15] (15) to 0x35.
2935000: system.cpu.[tid:0]: Reading integer reg integer[15] (15) as 0x35.
2935000: system.cpu.[tid:0]: Setting integer register integer[15] (15) to 0x5.
2939000: system.cpu.[tid:0]: Reading integer reg integer[15] (15) as 0x5.
2939000: system.cpu.[tid:0]: Setting integer register integer[14] (14) to 0x5.
2943000: system.cpu.[tid:0]: Reading integer reg integer[17] (17) as 0x9.
2943000: system.cpu.[tid:0]: Reading integer reg integer[14] (14) as 0x5.
2998000: system.cpu.[tid:0]: Reading integer reg integer[13] (13) as 0x7ffffffffffffc6a.
3000000: system.cpu.[tid:0]: Setting integer register integer[11] (11) to 0x2e.
3004000: system.cpu.[tid:0]: Reading integer reg integer[15] (15) as 0x5.
3004000: system.cpu.[tid:0]: Setting integer register integer[14] (14) to 0x5.
3006000: system.cpu.[tid:0]: Reading integer reg integer[13] (13) as 0x7ffffffffffffc6a.
3006000: system.cpu.[tid:0]: Setting integer register integer[13] (13) to 0x7ffffffffffffc6b.
3008000: system.cpu.[tid:0]: Reading integer reg integer[11] (11) as 0x2e.
3008000: system.cpu.[tid:0]: Setting integer register integer[12] (12) to 0xfffffffffffffffe.
3010000: system.cpu.[tid:0]: Reading integer reg integer[12] (12) as 0xfffffffffffffffe.
3010000: system.cpu.[tid:0]: Setting integer register integer[15] (15) to 0xfe.
3012000: system.cpu.[tid:0]: Reading integer reg integer[17] (17) as 0x9.
3012000: system.cpu.[tid:0]: Reading integer reg integer[15] (15) as 0xfe.
3014000: system.cpu.[tid:0]: Reading integer reg integer[10] (10) as 0.
3014000: system.cpu.[tid:0]: Setting integer register integer[15] (15) to 0.
3016000: system.cpu.[tid:0]: Reading integer reg integer[15] (15) as 0.
3016000: system.cpu.[tid:0]: Reading integer reg integer[14] (14) as 0x5.
3016000: system.cpu.[tid:0]: Setting integer register integer[15] (15) to 0x5.
3018000: system.cpu.[tid:0]: Reading integer reg integer[6] (6) as 0.
3018000: system.cpu.[tid:0]: Setting integer register integer[6] (6) to 0x1.
3020000: system.cpu.[tid:0]: Reading integer reg integer[15] (15) as 0x5.
3020000: system.cpu.[tid:0]: Setting integer register integer[10] (10) to 0x5.
3073000: system.cpu.[tid:0]: Reading integer reg integer[13] (13) as 0x7ffffffffffffc6b.
3073000: system.cpu.[tid:0]: Setting integer register integer[13] (13) to 0x7ffffffffffffc6c.
3081000: system.cpu.[tid:0]: Reading integer reg integer[11] (11) as 0x2e.
3081000: system.cpu.[tid:0]: Reading integer reg integer[28] (28) as 0x2e.
3085000: system.cpu.[tid:0]: Reading integer reg integer[6] (6) as 0x1.
3085000: system.cpu.[tid:0]: Reading integer reg integer[29] (29) as 0x3.
3089000: system.cpu.[tid:0]: Reading integer reg integer[13] (13) as 0x7ffffffffffffc6c.
3091000: system.cpu.[tid:0]: Setting integer register integer[15] (15) to 0x31.
3095000: system.cpu.[tid:0]: Reading integer reg integer[15] (15) as 0x31.
3095000: system.cpu.[tid:0]: Setting integer register integer[15] (15) to 0x1.
3099000: system.cpu.[tid:0]: Reading integer reg integer[15] (15) as 0x1.
3099000: system.cpu.[tid:0]: Setting integer register integer[14] (14) to 0x1.
3103000: system.cpu.[tid:0]: Reading integer reg integer[17] (17) as 0x9.
3103000: system.cpu.[tid:0]: Reading integer reg integer[14] (14) as 0x1.
3107000: system.cpu.[tid:0]: Reading integer reg integer[13] (13) as 0x7ffffffffffffc6c.
3109000: system.cpu.[tid:0]: Setting integer register integer[11] (11) to 0x2e.
3113000: system.cpu.[tid:0]: Reading integer reg integer[15] (15) as 0x1.
3113000: system.cpu.[tid:0]: Setting integer register integer[14] (14) to 0x1.
3115000: system.cpu.[tid:0]: Reading integer reg integer[13] (13) as 0x7ffffffffffffc6c.
3115000: system.cpu.[tid:0]: Setting integer register integer[13] (13) to 0x7ffffffffffffc6d.
3117000: system.cpu.[tid:0]: Reading integer reg integer[11] (11) as 0x2e.
3117000: system.cpu.[tid:0]: Setting integer register integer[12] (12) to 0xfffffffffffffffe.
3119000: system.cpu.[tid:0]: Reading integer reg integer[12] (12) as 0xfffffffffffffffe.
3119000: system.cpu.[tid:0]: Setting integer register integer[15] (15) to 0xfe.
3121000: system.cpu.[tid:0]: Reading integer reg integer[17] (17) as 0x9.
3121000: system.cpu.[tid:0]: Reading integer reg integer[15] (15) as 0xfe.
3123000: system.cpu.[tid:0]: Reading integer reg integer[10] (10) as 0x5.
3123000: system.cpu.[tid:0]: Setting integer register integer[15] (15) to 0x500.
3125000: system.cpu.[tid:0]: Reading integer reg integer[15] (15) as 0x500.
3125000: system.cpu.[tid:0]: Reading integer reg integer[14] (14) as 0x1.
3125000: system.cpu.[tid:0]: Setting integer register integer[15] (15) to 0x501.
3127000: system.cpu.[tid:0]: Reading integer reg integer[6] (6) as 0x1.
3127000: system.cpu.[tid:0]: Setting integer register integer[6] (6) to 0x2.
3129000: system.cpu.[tid:0]: Reading integer reg integer[15] (15) as 0x501.
3129000: system.cpu.[tid:0]: Setting integer register integer[10] (10) to 0x501.
3131000: system.cpu.[tid:0]: Reading integer reg integer[13] (13) as 0x7ffffffffffffc6d.
3131000: system.cpu.[tid:0]: Setting integer register integer[13] (13) to 0x7ffffffffffffc6e.
3135000: system.cpu.[tid:0]: Reading integer reg integer[11] (11) as 0x2e.
3135000: system.cpu.[tid:0]: Reading integer reg integer[28] (28) as 0x2e.
3139000: system.cpu.[tid:0]: Reading integer reg integer[6] (6) as 0x2.
3139000: system.cpu.[tid:0]: Reading integer reg integer[29] (29) as 0x3.
3143000: system.cpu.[tid:0]: Reading integer reg integer[13] (13) as 0x7ffffffffffffc6e.
3145000: system.cpu.[tid:0]: Setting integer register integer[15] (15) to 0x30.
3149000: system.cpu.[tid:0]: Reading integer reg integer[15] (15) as 0x30.
3149000: system.cpu.[tid:0]: Setting integer register integer[15] (15) to 0.
3153000: system.cpu.[tid:0]: Reading integer reg integer[15] (15) as 0.
3153000: system.cpu.[tid:0]: Setting integer register integer[14] (14) to 0.
3157000: system.cpu.[tid:0]: Reading integer reg integer[17] (17) as 0x9.
3157000: system.cpu.[tid:0]: Reading integer reg integer[14] (14) as 0.
3161000: system.cpu.[tid:0]: Reading integer reg integer[13] (13) as 0x7ffffffffffffc6e.
3163000: system.cpu.[tid:0]: Setting integer register integer[11] (11) to 0.
3167000: system.cpu.[tid:0]: Reading integer reg integer[15] (15) as 0.
3167000: system.cpu.[tid:0]: Setting integer register integer[14] (14) to 0.
3169000: system.cpu.[tid:0]: Reading integer reg integer[13] (13) as 0x7ffffffffffffc6e.
3169000: system.cpu.[tid:0]: Setting integer register integer[13] (13) to 0x7ffffffffffffc6f.
3171000: system.cpu.[tid:0]: Reading integer reg integer[11] (11) as 0.
3171000: system.cpu.[tid:0]: Setting integer register integer[12] (12) to 0xffffffffffffffd0.
3173000: system.cpu.[tid:0]: Reading integer reg integer[12] (12) as 0xffffffffffffffd0.
3173000: system.cpu.[tid:0]: Setting integer register integer[15] (15) to 0xd0.
3175000: system.cpu.[tid:0]: Reading integer reg integer[17] (17) as 0x9.
3175000: system.cpu.[tid:0]: Reading integer reg integer[15] (15) as 0xd0.
3177000: system.cpu.[tid:0]: Reading integer reg integer[10] (10) as 0x501.
3177000: system.cpu.[tid:0]: Setting integer register integer[15] (15) to 0x50100.
3179000: system.cpu.[tid:0]: Reading integer reg integer[15] (15) as 0x50100.
3179000: system.cpu.[tid:0]: Reading integer reg integer[14] (14) as 0.
3179000: system.cpu.[tid:0]: Setting integer register integer[15] (15) to 0x50100.
3181000: system.cpu.[tid:0]: Reading integer reg integer[6] (6) as 0x2.
3181000: system.cpu.[tid:0]: Setting integer register integer[6] (6) to 0x3.
3183000: system.cpu.[tid:0]: Reading integer reg integer[15] (15) as 0x50100.
3183000: system.cpu.[tid:0]: Setting integer register integer[10] (10) to 0x50100.
3185000: system.cpu.[tid:0]: Reading integer reg integer[13] (13) as 0x7ffffffffffffc6f.
3185000: system.cpu.[tid:0]: Setting integer register integer[13] (13) to 0x7ffffffffffffc70.
3189000: system.cpu.[tid:0]: Reading integer reg integer[11] (11) as 0.
3189000: system.cpu.[tid:0]: Reading integer reg integer[28] (28) as 0x2e.
3191000: system.cpu.[tid:0]: Setting integer register integer[15] (15) to 0x3.
3193000: system.cpu.[tid:0]: Reading integer reg integer[6] (6) as 0x3.
3193000: system.cpu.[tid:0]: Reading integer reg integer[15] (15) as 0x3.
3195000: system.cpu.[tid:0]: Reading integer reg integer[10] (10) as 0x50100.
3195000: system.cpu.[tid:0]: Setting integer register integer[10] (10) to 0x50100.
3197000: system.cpu.[tid:0]: Reading integer reg integer[2] (2) as 0x7ffffffffffffba0.
3199000: system.cpu.[tid:0]: Setting integer register integer[1] (1) to 0x10540.
3201000: system.cpu.[tid:0]: Reading integer reg integer[2] (2) as 0x7ffffffffffffba0.
3203000: system.cpu.[tid:0]: Setting integer register integer[8] (8) to 0x1089a.
3205000: system.cpu.[tid:0]: Reading integer reg integer[2] (2) as 0x7ffffffffffffba0.
3207000: system.cpu.[tid:0]: Setting integer register integer[9] (9) to 0x1092a.
3209000: system.cpu.[tid:0]: Reading integer reg integer[2] (2) as 0x7ffffffffffffba0.
3209000: system.cpu.[tid:0]: Setting integer register integer[2] (2) to 0x7ffffffffffffd90.
3211000: system.cpu.[tid:0]: Reading integer reg integer[1] (1) as 0x10540.
3264000: system.cpu.[tid:0]: Reading integer reg integer[10] (10) as 0x50100.
3270000: system.cpu.[tid:0]: Setting integer register integer[15] (15) to 0x7d000.
3272000: system.cpu.[tid:0]: Reading integer reg integer[15] (15) as 0x7d000.
3274000: system.cpu.[tid:0]: Setting integer register integer[14] (14) to 0.
3276000: system.cpu.[tid:0]: Reading integer reg integer[10] (10) as 0x50100.
3276000: system.cpu.[tid:0]: Setting integer register integer[15] (15) to 0x50100.
3278000: system.cpu.[tid:0]: Reading integer reg integer[14] (14) as 0.
3282000: system.cpu.[tid:0]: Setting integer register integer[14] (14) to 0x7d000.
3286000: system.cpu.[tid:0]: Reading integer reg integer[14] (14) as 0x7d000.
3286000: system.cpu.[tid:0]: Reading integer reg integer[15] (15) as 0x50100.
3292000: system.cpu.[tid:0]: Setting integer register integer[15] (15) to 0x30000.
3296000: system.cpu.[tid:0]: Reading integer reg integer[10] (10) as 0x50100.
3296000: system.cpu.[tid:0]: Reading integer reg integer[15] (15) as 0x30000.
3300000: system.cpu.[tid:0]: Setting integer register integer[1] (1) to 0x1041e.
3353000: system.cpu.[tid:0]: Setting integer register integer[11] (11) to 0x10.
3406000: system.cpu.[tid:0]: Setting integer register integer[10] (10) to 0.
3520000: system.cpu.[tid:0]: Setting integer register integer[15] (15) to 0x7d000.
3528000: system.cpu.[tid:0]: Reading integer reg integer[15] (15) as 0x7d000.
3530000: system.cpu.[tid:0]: Setting integer register integer[15] (15) to 0x10040.
3532000: system.cpu.[tid:0]: Reading integer reg integer[2] (2) as 0x7ffffffffffffd90.
3532000: system.cpu.[tid:0]: Setting integer register integer[2] (2) to 0x7ffffffffffffd30.
3534000: system.cpu.[tid:0]: Reading integer reg integer[2] (2) as 0x7ffffffffffffd30.
3534000: system.cpu.[tid:0]: Reading integer reg integer[22] (22) as 0.
3538000: system.cpu.[tid:0]: Reading integer reg integer[2] (2) as 0x7ffffffffffffd30.
3538000: system.cpu.[tid:0]: Reading integer reg integer[1] (1) as 0x1041e.
3542000: system.cpu.[tid:0]: Reading integer reg integer[2] (2) as 0x7ffffffffffffd30.
3542000: system.cpu.[tid:0]: Reading integer reg integer[8] (8) as 0x1089a.
3546000: system.cpu.[tid:0]: Reading integer reg integer[2] (2) as 0x7ffffffffffffd30.
3546000: system.cpu.[tid:0]: Reading integer reg integer[9] (9) as 0x1092a.
3550000: system.cpu.[tid:0]: Reading integer reg integer[2] (2) as 0x7ffffffffffffd30.
3550000: system.cpu.[tid:0]: Reading integer reg integer[18] (18) as 0.
3554000: system.cpu.[tid:0]: Reading integer reg integer[2] (2) as 0x7ffffffffffffd30.
3554000: system.cpu.[tid:0]: Reading integer reg integer[19] (19) as 0.
3558000: system.cpu.[tid:0]: Reading integer reg integer[2] (2) as 0x7ffffffffffffd30.
3558000: system.cpu.[tid:0]: Reading integer reg integer[20] (20) as 0.
3562000: system.cpu.[tid:0]: Reading integer reg integer[2] (2) as 0x7ffffffffffffd30.
3562000: system.cpu.[tid:0]: Reading integer reg integer[21] (21) as 0.
3566000: system.cpu.[tid:0]: Reading integer reg integer[2] (2) as 0x7ffffffffffffd30.
3566000: system.cpu.[tid:0]: Reading integer reg integer[23] (23) as 0.
3570000: system.cpu.[tid:0]: Reading integer reg integer[2] (2) as 0x7ffffffffffffd30.
3570000: system.cpu.[tid:0]: Reading integer reg integer[24] (24) as 0.
3574000: system.cpu.[tid:0]: Reading integer reg integer[2] (2) as 0x7ffffffffffffd30.
3574000: system.cpu.[tid:0]: Reading integer reg integer[25] (25) as 0.
3578000: system.cpu.[tid:0]: Reading integer reg integer[2] (2) as 0x7ffffffffffffd30.
3578000: system.cpu.[tid:0]: Reading integer reg integer[26] (26) as 0.
3582000: system.cpu.[tid:0]: Reading integer reg integer[11] (11) as 0x10.
3582000: system.cpu.[tid:0]: Setting integer register integer[22] (22) to 0x10.
3584000: system.cpu.[tid:0]: Reading integer reg integer[15] (15) as 0x10040.
3586000: system.cpu.[tid:0]: Setting integer register integer[14] (14) to 0x7d000.
3588000: system.cpu.[tid:0]: Reading integer reg integer[14] (14) as 0x7d000.
3590000: system.cpu.[tid:0]: Setting integer register integer[13] (13) to 0x5.
3592000: system.cpu.[tid:0]: Reading integer reg integer[13] (13) as 0x5.
3592000: system.cpu.[tid:0]: Setting integer register integer[14] (14) to 0x28.
3594000: system.cpu.[tid:0]: Reading integer reg integer[14] (14) as 0x28.
3594000: system.cpu.[tid:0]: Reading integer reg integer[13] (13) as 0x5.
3594000: system.cpu.[tid:0]: Setting integer register integer[14] (14) to 0x23.
3596000: system.cpu.[tid:0]: Reading integer reg integer[14] (14) as 0x23.
3596000: system.cpu.[tid:0]: Setting integer register integer[14] (14) to 0x118.
3598000: system.cpu.[tid:0]: Reading integer reg integer[14] (14) as 0x118.
3598000: system.cpu.[tid:0]: Reading integer reg integer[15] (15) as 0x10040.
3598000: system.cpu.[tid:0]: Setting integer register integer[14] (14) to 0x10158.
3602000: system.cpu.[tid:0]: Reading integer reg integer[15] (15) as 0x10040.
3602000: system.cpu.[tid:0]: Reading integer reg integer[14] (14) as 0x10158.
3604000: system.cpu.[tid:0]: Reading integer reg integer[15] (15) as 0x10040.
3657000: system.cpu.[tid:0]: Setting integer register integer[12] (12) to 0x1.
3659000: system.cpu.[tid:0]: Setting integer register integer[13] (13) to 0x7.
3714000: system.cpu.[tid:0]: Reading integer reg integer[12] (12) as 0x1.
3714000: system.cpu.[tid:0]: Reading integer reg integer[13] (13) as 0x7.
3720000: system.cpu.[tid:0]: Setting integer register integer[12] (12) to 0x7.
3724000: system.cpu.[tid:0]: Reading integer reg integer[15] (15) as 0x10040.
3724000: system.cpu.[tid:0]: Setting integer register integer[15] (15) to 0x10078.
3726000: system.cpu.[tid:0]: Reading integer reg integer[15] (15) as 0x10078.
3726000: system.cpu.[tid:0]: Reading integer reg integer[14] (14) as 0x10158.
3728000: system.cpu.[tid:0]: Reading integer reg integer[15] (15) as 0x10078.
3730000: system.cpu.[tid:0]: Setting integer register integer[13] (13) to 0x1.
3732000: system.cpu.[tid:0]: Reading integer reg integer[13] (13) as 0x1.
3732000: system.cpu.[tid:0]: Reading integer reg integer[12] (12) as 0x7.
3734000: system.cpu.[tid:0]: Reading integer reg integer[15] (15) as 0x10078.
3734000: system.cpu.[tid:0]: Setting integer register integer[15] (15) to 0x100b0.
3736000: system.cpu.[tid:0]: Reading integer reg integer[15] (15) as 0x100b0.
3736000: system.cpu.[tid:0]: Reading integer reg integer[14] (14) as 0x10158.
3738000: system.cpu.[tid:0]: Reading integer reg integer[15] (15) as 0x100b0.
3791000: system.cpu.[tid:0]: Setting integer register integer[13] (13) to 0x4.
3793000: system.cpu.[tid:0]: Reading integer reg integer[13] (13) as 0x4.
3793000: system.cpu.[tid:0]: Reading integer reg integer[12] (12) as 0x7.
3795000: system.cpu.[tid:0]: Reading integer reg integer[15] (15) as 0x100b0.
3795000: system.cpu.[tid:0]: Setting integer register integer[15] (15) to 0x100e8.
3797000: system.cpu.[tid:0]: Reading integer reg integer[15] (15) as 0x100e8.
3797000: system.cpu.[tid:0]: Reading integer reg integer[14] (14) as 0x10158.
3799000: system.cpu.[tid:0]: Reading integer reg integer[15] (15) as 0x100e8.
3852000: system.cpu.[tid:0]: Setting integer register integer[13] (13) to 0x7.
3854000: system.cpu.[tid:0]: Reading integer reg integer[13] (13) as 0x7.
3854000: system.cpu.[tid:0]: Reading integer reg integer[12] (12) as 0x7.
3907000: system.cpu.[tid:0]: Reading integer reg integer[15] (15) as 0x100e8.
3974000: system.cpu.[tid:0]: Setting integer register integer[23] (23) to 0x8.
3976000: system.cpu.[tid:0]: Reading integer reg integer[15] (15) as 0x100e8.
3978000: system.cpu.[tid:0]: Setting integer register integer[25] (25) to 0x50.
3980000: system.cpu.[tid:0]: Reading integer reg integer[15] (15) as 0x100e8.
3982000: system.cpu.[tid:0]: Setting integer register integer[18] (18) to 0x20.
3984000: system.cpu.[tid:0]: Reading integer reg integer[15] (15) as 0x100e8.
3986000: system.cpu.[tid:0]: Setting integer register integer[19] (19) to 0x79f50.
3988000: system.cpu.[tid:0]: Reading integer reg integer[22] (22) as 0x10.
3988000: system.cpu.[tid:0]: Reading integer reg integer[23] (23) as 0x8.
3990000: system.cpu.[tid:0]: Reading integer reg integer[23] (23) as 0x8.
3992000: system.cpu.[tid:0]: Reading integer reg integer[23] (23) as 0x8.
3992000: system.cpu.[tid:0]: Setting integer register integer[21] (21) to 0x7.
3994000: system.cpu.[tid:0]: Reading integer reg integer[10] (10) as 0.
3994000: system.cpu.[tid:0]: Reading integer reg integer[21] (21) as 0x7.
3994000: system.cpu.[tid:0]: Setting integer register integer[10] (10) to 0x7.
3996000: system.cpu.[tid:0]: Reading integer reg integer[23] (23) as 0x8.
3996000: system.cpu.[tid:0]: Setting integer register integer[20] (20) to 0x8.
3998000: system.cpu.[tid:0]: Reading integer reg integer[21] (21) as 0x7.
3998000: system.cpu.[tid:0]: Reading integer reg integer[25] (25) as 0x50.
3998000: system.cpu.[tid:0]: Setting integer register integer[21] (21) to 0x57.
4002000: system.cpu.[tid:0]: Reading integer reg integer[10] (10) as 0x7.
4002000: system.cpu.[tid:0]: Reading integer reg integer[23] (23) as 0x8.
4002000: system.cpu.[tid:0]: Setting integer register integer[8] (8) to 0.
4004000: system.cpu.[tid:0]: Reading integer reg integer[3] (3) as 0x7c0f0.
4057000: system.cpu.[tid:0]: Setting integer register integer[10] (10) to 0x800.
4059000: system.cpu.[tid:0]: Reading integer reg integer[10] (10) as 0x800.
4059000: system.cpu.[tid:0]: Setting integer register integer[10] (10) to 0xf00.
4061000: system.cpu.[tid:0]: Reading integer reg integer[10] (10) as 0xf00.
4061000: system.cpu.[tid:0]: Reading integer reg integer[25] (25) as 0x50.
4061000: system.cpu.[tid:0]: Setting integer register integer[10] (10) to 0xf50.
4063000: system.cpu.[tid:0]: Reading integer reg integer[10] (10) as 0xf50.
4063000: system.cpu.[tid:0]: Reading integer reg integer[22] (22) as 0x10.
4063000: system.cpu.[tid:0]: Setting integer register integer[10] (10) to 0xf60.
4065000: system.cpu.[tid:0]: Reading integer reg integer[8] (8) as 0.
4065000: system.cpu.[tid:0]: Reading integer reg integer[23] (23) as 0x8.
4065000: system.cpu.[tid:0]: Setting integer register integer[8] (8) to 0.
4067000: system.cpu.[tid:0]: Reading integer reg integer[10] (10) as 0xf60.
4067000: system.cpu.[tid:0]: Reading integer reg integer[8] (8) as 0.
4067000: system.cpu.[tid:0]: Setting integer register integer[10] (10) to 0xf60.
4071000: system.cpu.[tid:0]: Setting integer register integer[1] (1) to 0x1073a.
4124000: system.cpu.[tid:0]: Reading integer reg integer[2] (2) as 0x7ffffffffffffd30.
4124000: system.cpu.[tid:0]: Setting integer register integer[2] (2) to 0x7ffffffffffffd10.
4130000: system.cpu.[tid:0]: Reading integer reg integer[2] (2) as 0x7ffffffffffffd10.
4130000: system.cpu.[tid:0]: Reading integer reg integer[18] (18) as 0x20.
4134000: system.cpu.[tid:0]: Reading integer reg integer[2] (2) as 0x7ffffffffffffd10.
4134000: system.cpu.[tid:0]: Reading integer reg integer[8] (8) as 0.
4140000: system.cpu.[tid:0]: Reading integer reg integer[3] (3) as 0x7c0f0.
4193000: system.cpu.[tid:0]: Setting integer register integer[8] (8) to 0.
4195000: system.cpu.[tid:0]: Reading integer reg integer[2] (2) as 0x7ffffffffffffd10.
4195000: system.cpu.[tid:0]: Reading integer reg integer[9] (9) as 0x1092a.
4199000: system.cpu.[tid:0]: Reading integer reg integer[2] (2) as 0x7ffffffffffffd10.
4199000: system.cpu.[tid:0]: Reading integer reg integer[1] (1) as 0x1073a.
4203000: system.cpu.[tid:0]: Reading integer reg integer[10] (10) as 0xf60.
4203000: system.cpu.[tid:0]: Setting integer register integer[9] (9) to 0xf60.
4205000: system.cpu.[tid:0]: Reading integer reg integer[8] (8) as 0.
4207000: system.cpu.[tid:0]: Setting integer register integer[10] (10) to 0.
4211000: system.cpu.[tid:0]: Setting integer register integer[1] (1) to 0x20bee.
4264000: system.cpu.[tid:0]: Reading integer reg integer[10] (10) as 0.
4264000: system.cpu.[tid:0]: Setting integer register integer[15] (15) to 0.
4272000: system.cpu.[tid:0]: Setting integer register integer[17] (17) to 0xd6.
4276000: system.cpu.[tid:0]: Reading integer reg integer[17] (17) as 0xd6.
4276000: system.cpu.[tid:0]: Reading integer reg integer[10] (10) as 0.
4276000: system.cpu.[tid:0]: Setting integer register integer[10] (10) to 0x7e000.
4280000: system.cpu.[tid:0]: Reading integer reg integer[3] (3) as 0x7c0f0.
4280000: system.cpu.[tid:0]: Reading integer reg integer[10] (10) as 0x7e000.
4286000: system.cpu.[tid:0]: Reading integer reg integer[10] (10) as 0x7e000.
4286000: system.cpu.[tid:0]: Reading integer reg integer[15] (15) as 0.
4288000: system.cpu.[tid:0]: Setting integer register integer[10] (10) to 0.
4290000: system.cpu.[tid:0]: Reading integer reg integer[1] (1) as 0x20bee.
4294000: system.cpu.[tid:0]: Reading integer reg integer[10] (10) as 0.
4298000: system.cpu.[tid:0]: Reading integer reg integer[3] (3) as 0x7c0f0.
4300000: system.cpu.[tid:0]: Setting integer register integer[8] (8) to 0x7e000.
4302000: system.cpu.[tid:0]: Reading integer reg integer[9] (9) as 0xf60.
4304000: system.cpu.[tid:0]: Reading integer reg integer[9] (9) as 0xf60.
4306000: system.cpu.[tid:0]: Reading integer reg integer[9] (9) as 0xf60.
4306000: system.cpu.[tid:0]: Reading integer reg integer[8] (8) as 0x7e000.
4306000: system.cpu.[tid:0]: Setting integer register integer[15] (15) to 0x7ef60.
4359000: system.cpu.[tid:0]: Reading integer reg integer[15] (15) as 0x7ef60.
4359000: system.cpu.[tid:0]: Reading integer reg integer[8] (8) as 0x7e000.
4359000: system.cpu.[tid:0]: Setting integer register integer[15] (15) to 0.
4365000: system.cpu.[tid:0]: Reading integer reg integer[15] (15) as 0.
4367000: system.cpu.[tid:0]: Reading integer reg integer[8] (8) as 0x7e000.
4367000: system.cpu.[tid:0]: Reading integer reg integer[9] (9) as 0xf60.
4367000: system.cpu.[tid:0]: Setting integer register integer[10] (10) to 0x7ef60.
4369000: system.cpu.[tid:0]: Setting integer register integer[1] (1) to 0x20c24.
4371000: system.cpu.[tid:0]: Reading integer reg integer[10] (10) as 0x7ef60.
4371000: system.cpu.[tid:0]: Setting integer register integer[15] (15) to 0x7ef60.
4375000: system.cpu.[tid:0]: Setting integer register integer[17] (17) to 0xd6.
4379000: system.cpu.[tid:0]: Reading integer reg integer[17] (17) as 0xd6.
4379000: system.cpu.[tid:0]: Reading integer reg integer[10] (10) as 0x7ef60.
4379000: system.cpu.[tid:0]: Setting integer register integer[10] (10) to 0x7ef60.
4383000: system.cpu.[tid:0]: Reading integer reg integer[3] (3) as 0x7c0f0.
4383000: system.cpu.[tid:0]: Reading integer reg integer[10] (10) as 0x7ef60.
4389000: system.cpu.[tid:0]: Reading integer reg integer[10] (10) as 0x7ef60.
4389000: system.cpu.[tid:0]: Reading integer reg integer[15] (15) as 0x7ef60.
4391000: system.cpu.[tid:0]: Setting integer register integer[10] (10) to 0.
4393000: system.cpu.[tid:0]: Reading integer reg integer[1] (1) as 0x20c24.
4395000: system.cpu.[tid:0]: Reading integer reg integer[10] (10) as 0.
4397000: system.cpu.[tid:0]: Reading integer reg integer[8] (8) as 0x7e000.
4397000: system.cpu.[tid:0]: Setting integer register integer[10] (10) to 0x7e000.
4399000: system.cpu.[tid:0]: Reading integer reg integer[2] (2) as 0x7ffffffffffffd10.
4401000: system.cpu.[tid:0]: Setting integer register integer[1] (1) to 0x1073a.
4403000: system.cpu.[tid:0]: Reading integer reg integer[2] (2) as 0x7ffffffffffffd10.
4405000: system.cpu.[tid:0]: Setting integer register integer[8] (8) to 0.
4407000: system.cpu.[tid:0]: Reading integer reg integer[2] (2) as 0x7ffffffffffffd10.
4409000: system.cpu.[tid:0]: Setting integer register integer[9] (9) to 0x1092a.
4411000: system.cpu.[tid:0]: Reading integer reg integer[2] (2) as 0x7ffffffffffffd10.
4413000: system.cpu.[tid:0]: Setting integer register integer[18] (18) to 0x20.
4415000: system.cpu.[tid:0]: Reading integer reg integer[2] (2) as 0x7ffffffffffffd10.
4415000: system.cpu.[tid:0]: Setting integer register integer[2] (2) to 0x7ffffffffffffd30.
4417000: system.cpu.[tid:0]: Reading integer reg integer[1] (1) as 0x1073a.
4421000: system.cpu.[tid:0]: Reading integer reg integer[21] (21) as 0x57.
4421000: system.cpu.[tid:0]: Reading integer reg integer[23] (23) as 0x8.
4421000: system.cpu.[tid:0]: Setting integer register integer[21] (21) to 0xa.
4476000: system.cpu.[tid:0]: Reading integer reg integer[10] (10) as 0x7e000.
4476000: system.cpu.[tid:0]: Reading integer reg integer[22] (22) as 0x10.
4476000: system.cpu.[tid:0]: Setting integer register integer[9] (9) to 0x7e010.
4484000: system.cpu.[tid:0]: Setting integer register integer[15] (15) to 0x7b000.
4488000: system.cpu.[tid:0]: Reading integer reg integer[15] (15) as 0x7b000.
4541000: system.cpu.[tid:0]: Setting integer register integer[26] (26) to 0x7af28.
4545000: system.cpu.[tid:0]: Reading integer reg integer[22] (22) as 0x10.
4545000: system.cpu.[tid:0]: Setting integer register integer[10] (10) to 0xfffffffffffffff0.
4549000: system.cpu.[tid:0]: Reading integer reg integer[9] (9) as 0x7e010.
4549000: system.cpu.[tid:0]: Setting integer register integer[9] (9) to 0x7e70f.
4551000: system.cpu.[tid:0]: Reading integer reg integer[9] (9) as 0x7e70f.
4551000: system.cpu.[tid:0]: Reading integer reg integer[10] (10) as 0xfffffffffffffff0.
4551000: system.cpu.[tid:0]: Setting integer register integer[9] (9) to 0x7e700.
4553000: system.cpu.[tid:0]: Setting integer register integer[13] (13) to 0x7d000.
4555000: system.cpu.[tid:0]: Reading integer reg integer[9] (9) as 0x7e700.
4555000: system.cpu.[tid:0]: Reading integer reg integer[8] (8) as 0.
4555000: system.cpu.[tid:0]: Setting integer register integer[14] (14) to 0x7e700.
4557000: system.cpu.[tid:0]: Reading integer reg integer[13] (13) as 0x7d000.
4557000: system.cpu.[tid:0]: Setting integer register integer[15] (15) to 0x7cc18.
4559000: system.cpu.[tid:0]: Reading integer reg integer[15] (15) as 0x7cc18.
4559000: system.cpu.[tid:0]: Reading integer reg integer[14] (14) as 0x7e700.
4644000: system.cpu.[tid:0]: Reading integer reg integer[26] (26) as 0x7af28.
4644000: system.cpu.[tid:0]: Reading integer reg integer[8] (8) as 0.
4699000: system.cpu.[tid:0]: Reading integer reg integer[18] (18) as 0x20.
4699000: system.cpu.[tid:0]: Setting integer register integer[12] (12) to 0x20.
4701000: system.cpu.[tid:0]: Reading integer reg integer[14] (14) as 0x7e700.
4701000: system.cpu.[tid:0]: Setting integer register integer[10] (10) to 0x7e700.
4705000: system.cpu.[tid:0]: Setting integer register integer[16] (16) to 0x3e.
4709000: system.cpu.[tid:0]: Reading integer reg integer[15] (15) as 0x7cc18.
4764000: system.cpu.[tid:0]: Reading integer reg integer[19] (19) as 0x79f50.
4764000: system.cpu.[tid:0]: Setting integer register integer[11] (11) to 0x79f50.
4766000: system.cpu.[tid:0]: Reading integer reg integer[13] (13) as 0x7d000.
4766000: system.cpu.[tid:0]: Reading integer reg integer[16] (16) as 0x3e.
4770000: system.cpu.[tid:0]: Setting integer register integer[1] (1) to 0x1077c.
4857000: system.cpu.[tid:0]: Reading integer reg integer[11] (11) as 0x79f50.
4857000: system.cpu.[tid:0]: Reading integer reg integer[10] (10) as 0x7e700.
4857000: system.cpu.[tid:0]: Setting integer register integer[15] (15) to 0x7850.
4859000: system.cpu.[tid:0]: Reading integer reg integer[15] (15) as 0x7850.
4859000: system.cpu.[tid:0]: Setting integer register integer[15] (15) to 0.
4861000: system.cpu.[tid:0]: Reading integer reg integer[10] (10) as 0x7e700.
4861000: system.cpu.[tid:0]: Reading integer reg integer[12] (12) as 0x20.
4861000: system.cpu.[tid:0]: Setting integer register integer[17] (17) to 0x7e720.
4863000: system.cpu.[tid:0]: Reading integer reg integer[15] (15) as 0.
4865000: system.cpu.[tid:0]: Setting integer register integer[15] (15) to 0x7.
4867000: system.cpu.[tid:0]: Reading integer reg integer[15] (15) as 0x7.
4867000: system.cpu.[tid:0]: Reading integer reg integer[12] (12) as 0x20.
4869000: system.cpu.[tid:0]: Reading integer reg integer[10] (10) as 0x7e700.
4869000: system.cpu.[tid:0]: Setting integer register integer[14] (14) to 0.
4871000: system.cpu.[tid:0]: Reading integer reg integer[10] (10) as 0x7e700.
4871000: system.cpu.[tid:0]: Setting integer register integer[15] (15) to 0x7e700.
4873000: system.cpu.[tid:0]: Reading integer reg integer[14] (14) as 0.
4875000: system.cpu.[tid:0]: Reading integer reg integer[17] (17) as 0x7e720.
4875000: system.cpu.[tid:0]: Setting integer register integer[16] (16) to 0x7e720.
4877000: system.cpu.[tid:0]: Reading integer reg integer[16] (16) as 0x7e720.
4877000: system.cpu.[tid:0]: Setting integer register integer[14] (14) to 0x7e6e0.
4879000: system.cpu.[tid:0]: Reading integer reg integer[15] (15) as 0x7e700.
4879000: system.cpu.[tid:0]: Reading integer reg integer[14] (14) as 0x7e6e0.
4881000: system.cpu.[tid:0]: Reading integer reg integer[11] (11) as 0x79f50.
4881000: system.cpu.[tid:0]: Setting integer register integer[13] (13) to 0x79f50.
4883000: system.cpu.[tid:0]: Reading integer reg integer[15] (15) as 0x7e700.
4883000: system.cpu.[tid:0]: Setting integer register integer[14] (14) to 0x7e700.
4885000: system.cpu.[tid:0]: Reading integer reg integer[15] (15) as 0x7e700.
4885000: system.cpu.[tid:0]: Reading integer reg integer[16] (16) as 0x7e720.
4887000: system.cpu.[tid:0]: Reading integer reg integer[13] (13) as 0x79f50.
4940000: system.cpu.[tid:0]: Setting integer register integer[12] (12) to 0x7b730.
4942000: system.cpu.[tid:0]: Reading integer reg integer[14] (14) as 0x7e700.
4942000: system.cpu.[tid:0]: Setting integer register integer[14] (14) to 0x7e708.
4944000: system.cpu.[tid:0]: Reading integer reg integer[13] (13) as 0x79f50.
4944000: system.cpu.[tid:0]: Setting integer register integer[13] (13) to 0x79f58.
4999000: system.cpu.[tid:0]: Reading integer reg integer[14] (14) as 0x7e708.
4999000: system.cpu.[tid:0]: Reading integer reg integer[12] (12) as 0x7b730.
5003000: system.cpu.[tid:0]: Reading integer reg integer[14] (14) as 0x7e708.
5003000: system.cpu.[tid:0]: Reading integer reg integer[12] (12) as 0x7b730.
5088000: system.cpu.[tid:0]: Reading integer reg integer[14] (14) as 0x7e708.
5088000: system.cpu.[tid:0]: Reading integer reg integer[16] (16) as 0x7e720.
5090000: system.cpu.[tid:0]: Reading integer reg integer[13] (13) as 0x79f58.
5092000: system.cpu.[tid:0]: Setting integer register integer[12] (12) to 0x7b730.
5094000: system.cpu.[tid:0]: Reading integer reg integer[14] (14) as 0x7e708.
5094000: system.cpu.[tid:0]: Setting integer register integer[14] (14) to 0x7e710.
5096000: system.cpu.[tid:0]: Reading integer reg integer[13] (13) as 0x79f58.
5096000: system.cpu.[tid:0]: Setting integer register integer[13] (13) to 0x79f60.
5100000: system.cpu.[tid:0]: Reading integer reg integer[14] (14) as 0x7e710.
5100000: system.cpu.[tid:0]: Reading integer reg integer[12] (12) as 0x7b730.
5106000: system.cpu.[tid:0]: Reading integer reg integer[14] (14) as 0x7e710.
5106000: system.cpu.[tid:0]: Reading integer reg integer[16] (16) as 0x7e720.
5108000: system.cpu.[tid:0]: Reading integer reg integer[13] (13) as 0x79f60.
5110000: system.cpu.[tid:0]: Setting integer register integer[12] (12) to 0x7b750.
5112000: system.cpu.[tid:0]: Reading integer reg integer[14] (14) as 0x7e710.
5112000: system.cpu.[tid:0]: Setting integer register integer[14] (14) to 0x7e718.
5114000: system.cpu.[tid:0]: Reading integer reg integer[13] (13) as 0x79f60.
5114000: system.cpu.[tid:0]: Setting integer register integer[13] (13) to 0x79f68.
5118000: system.cpu.[tid:0]: Reading integer reg integer[14] (14) as 0x7e718.
5118000: system.cpu.[tid:0]: Reading integer reg integer[12] (12) as 0x7b750.
5124000: system.cpu.[tid:0]: Reading integer reg integer[14] (14) as 0x7e718.
5124000: system.cpu.[tid:0]: Reading integer reg integer[16] (16) as 0x7e720.
5126000: system.cpu.[tid:0]: Reading integer reg integer[13] (13) as 0x79f68.
5128000: system.cpu.[tid:0]: Setting integer register integer[12] (12) to 0x7b738.
5130000: system.cpu.[tid:0]: Reading integer reg integer[14] (14) as 0x7e718.
5130000: system.cpu.[tid:0]: Setting integer register integer[14] (14) to 0x7e720.
5132000: system.cpu.[tid:0]: Reading integer reg integer[13] (13) as 0x79f68.
5132000: system.cpu.[tid:0]: Setting integer register integer[13] (13) to 0x79f70.
5136000: system.cpu.[tid:0]: Reading integer reg integer[14] (14) as 0x7e720.
5136000: system.cpu.[tid:0]: Reading integer reg integer[12] (12) as 0x7b738.
5142000: system.cpu.[tid:0]: Reading integer reg integer[14] (14) as 0x7e720.
5142000: system.cpu.[tid:0]: Reading integer reg integer[16] (16) as 0x7e720.
5146000: system.cpu.[tid:0]: Reading integer reg integer[15] (15) as 0x7e700.
5146000: system.cpu.[tid:0]: Setting integer register integer[14] (14) to 0xfffffffffff818ff.
5148000: system.cpu.[tid:0]: Reading integer reg integer[16] (16) as 0x7e720.
5148000: system.cpu.[tid:0]: Reading integer reg integer[14] (14) as 0xfffffffffff818ff.
5148000: system.cpu.[tid:0]: Setting integer register integer[16] (16) to 0x1f.
5150000: system.cpu.[tid:0]: Reading integer reg integer[16] (16) as 0x1f.
5150000: system.cpu.[tid:0]: Setting integer register integer[16] (16) to 0x18.
5152000: system.cpu.[tid:0]: Reading integer reg integer[16] (16) as 0x18.
5152000: system.cpu.[tid:0]: Setting integer register integer[16] (16) to 0x20.
5154000: system.cpu.[tid:0]: Reading integer reg integer[15] (15) as 0x7e700.
5154000: system.cpu.[tid:0]: Reading integer reg integer[16] (16) as 0x20.
5154000: system.cpu.[tid:0]: Setting integer register integer[15] (15) to 0x7e720.
5156000: system.cpu.[tid:0]: Reading integer reg integer[11] (11) as 0x79f50.
5156000: system.cpu.[tid:0]: Reading integer reg integer[16] (16) as 0x20.
5156000: system.cpu.[tid:0]: Setting integer register integer[11] (11) to 0x79f70.
5160000: system.cpu.[tid:0]: Reading integer reg integer[15] (15) as 0x7e720.
5160000: system.cpu.[tid:0]: Reading integer reg integer[17] (17) as 0x7e720.
5162000: system.cpu.[tid:0]: Reading integer reg integer[1] (1) as 0x1077c.
5164000: system.cpu.[tid:0]: Reading integer reg integer[3] (3) as 0x7c0f0.
5166000: system.cpu.[tid:0]: Setting integer register integer[15] (15) to 0x800.
5219000: system.cpu.[tid:0]: Setting integer register integer[14] (14) to 0x7d000.
5225000: system.cpu.[tid:0]: Reading integer reg integer[14] (14) as 0x7d000.
5225000: system.cpu.[tid:0]: Setting integer register integer[14] (14) to 0x7cc28.
5227000: system.cpu.[tid:0]: Reading integer reg integer[9] (9) as 0x7e700.
5227000: system.cpu.[tid:0]: Reading integer reg integer[14] (14) as 0x7cc28.
5282000: system.cpu.[tid:0]: Reading integer reg integer[15] (15) as 0x800.
5282000: system.cpu.[tid:0]: Setting integer register integer[15] (15) to 0x80f.
5286000: system.cpu.[tid:0]: Reading integer reg integer[3] (3) as 0x7c0f0.
5286000: system.cpu.[tid:0]: Setting integer register integer[14] (14) to 0x7bea8.
5290000: system.cpu.[tid:0]: Setting integer register integer[12] (12) to 0x40.
5292000: system.cpu.[tid:0]: Setting integer register integer[13] (13) to 0x1.
5294000: system.cpu.[tid:0]: Reading integer reg integer[14] (14) as 0x7bea8.
5294000: system.cpu.[tid:0]: Reading integer reg integer[12] (12) as 0x40.
5351000: system.cpu.[tid:0]: Setting integer register integer[12] (12) to 0x7d000.
5355000: system.cpu.[tid:0]: Reading integer reg integer[26] (26) as 0x7af28.
5355000: system.cpu.[tid:0]: Reading integer reg integer[13] (13) as 0x1.
5361000: system.cpu.[tid:0]: Reading integer reg integer[12] (12) as 0x7d000.
5361000: system.cpu.[tid:0]: Reading integer reg integer[13] (13) as 0x1.
5367000: system.cpu.[tid:0]: Setting integer register integer[13] (13) to 0x7d000.
5371000: system.cpu.[tid:0]: Reading integer reg integer[13] (13) as 0x7d000.
5371000: system.cpu.[tid:0]: Reading integer reg integer[14] (14) as 0x7bea8.
5428000: system.cpu.[tid:0]: Reading integer reg integer[14] (14) as 0x7bea8.
5428000: system.cpu.[tid:0]: Reading integer reg integer[26] (26) as 0x7af28.
5485000: system.cpu.[tid:0]: Reading integer reg integer[26] (26) as 0x7af28.
5485000: system.cpu.[tid:0]: Reading integer reg integer[20] (20) as 0x8.
5491000: system.cpu.[tid:0]: Reading integer reg integer[26] (26) as 0x7af28.
5491000: system.cpu.[tid:0]: Reading integer reg integer[25] (25) as 0x50.
5497000: system.cpu.[tid:0]: Reading integer reg integer[26] (26) as 0x7af28.
5497000: system.cpu.[tid:0]: Reading integer reg integer[19] (19) as 0x79f50.
5605000: system.cpu.[tid:0]: Reading integer reg integer[26] (26) as 0x7af28.
5605000: system.cpu.[tid:0]: Reading integer reg integer[18] (18) as 0x20.
5609000: system.cpu.[tid:0]: Setting integer register integer[14] (14) to 0x10.
5611000: system.cpu.[tid:0]: Reading integer reg integer[9] (9) as 0x7e700.
5611000: system.cpu.[tid:0]: Setting integer register integer[4] (4) to 0x7e700.
5615000: system.cpu.[tid:0]: Reading integer reg integer[21] (21) as 0xa.
5615000: system.cpu.[tid:0]: Reading integer reg integer[23] (23) as 0x8.
5615000: system.cpu.[tid:0]: Setting integer register integer[23] (23) to 0x50.
5617000: system.cpu.[tid:0]: Reading integer reg integer[8] (8) as 0.
5617000: system.cpu.[tid:0]: Reading integer reg integer[23] (23) as 0x50.
5617000: system.cpu.[tid:0]: Setting integer register integer[8] (8) to 0x50.
5619000: system.cpu.[tid:0]: Reading integer reg integer[15] (15) as 0x80f.
5619000: system.cpu.[tid:0]: Reading integer reg integer[8] (8) as 0x50.
5619000: system.cpu.[tid:0]: Setting integer register integer[15] (15) to 0x85f.
5621000: system.cpu.[tid:0]: Reading integer reg integer[15] (15) as 0x85f.
5621000: system.cpu.[tid:0]: Setting integer register integer[15] (15) to 0x850.
5623000: system.cpu.[tid:0]: Reading integer reg integer[3] (3) as 0x7c0f0.
5623000: system.cpu.[tid:0]: Reading integer reg integer[15] (15) as 0x850.
5627000: system.cpu.[tid:0]: Setting integer register integer[15] (15) to 0x7d000.
5629000: system.cpu.[tid:0]: Reading integer reg integer[15] (15) as 0x7d000.
5629000: system.cpu.[tid:0]: Reading integer reg integer[8] (8) as 0x50.
5633000: system.cpu.[tid:0]: Reading integer reg integer[22] (22) as 0x10.
5633000: system.cpu.[tid:0]: Reading integer reg integer[14] (14) as 0x10.
5637000: system.cpu.[tid:0]: Setting integer register integer[15] (15) to 0x7d000.
5639000: system.cpu.[tid:0]: Reading integer reg integer[2] (2) as 0x7ffffffffffffd30.
5641000: system.cpu.[tid:0]: Setting integer register integer[1] (1) to 0x1041e.
5643000: system.cpu.[tid:0]: Reading integer reg integer[2] (2) as 0x7ffffffffffffd30.
5645000: system.cpu.[tid:0]: Setting integer register integer[8] (8) to 0x1089a.
5649000: system.cpu.[tid:0]: Reading integer reg integer[15] (15) as 0x7d000.
5649000: system.cpu.[tid:0]: Reading integer reg integer[22] (22) as 0x10.
5653000: system.cpu.[tid:0]: Setting integer register integer[14] (14) to 0x1.
5655000: system.cpu.[tid:0]: Setting integer register integer[15] (15) to 0x7d000.
5657000: system.cpu.[tid:0]: Reading integer reg integer[15] (15) as 0x7d000.
5657000: system.cpu.[tid:0]: Reading integer reg integer[14] (14) as 0x1.
5661000: system.cpu.[tid:0]: Reading integer reg integer[2] (2) as 0x7ffffffffffffd30.
5663000: system.cpu.[tid:0]: Setting integer register integer[9] (9) to 0x1092a.
5665000: system.cpu.[tid:0]: Reading integer reg integer[2] (2) as 0x7ffffffffffffd30.
5667000: system.cpu.[tid:0]: Setting integer register integer[18] (18) to 0.
5669000: system.cpu.[tid:0]: Reading integer reg integer[2] (2) as 0x7ffffffffffffd30.
5671000: system.cpu.[tid:0]: Setting integer register integer[19] (19) to 0.
5673000: system.cpu.[tid:0]: Reading integer reg integer[2] (2) as 0x7ffffffffffffd30.
5675000: system.cpu.[tid:0]: Setting integer register integer[20] (20) to 0.
5677000: system.cpu.[tid:0]: Reading integer reg integer[2] (2) as 0x7ffffffffffffd30.
5679000: system.cpu.[tid:0]: Setting integer register integer[21] (21) to 0.
5681000: system.cpu.[tid:0]: Reading integer reg integer[2] (2) as 0x7ffffffffffffd30.
5683000: system.cpu.[tid:0]: Setting integer register integer[22] (22) to 0.
5685000: system.cpu.[tid:0]: Reading integer reg integer[2] (2) as 0x7ffffffffffffd30.
5687000: system.cpu.[tid:0]: Setting integer register integer[23] (23) to 0.
5689000: system.cpu.[tid:0]: Reading integer reg integer[2] (2) as 0x7ffffffffffffd30.
5691000: system.cpu.[tid:0]: Setting integer register integer[24] (24) to 0.
5693000: system.cpu.[tid:0]: Reading integer reg integer[2] (2) as 0x7ffffffffffffd30.
5695000: system.cpu.[tid:0]: Setting integer register integer[25] (25) to 0.
5697000: system.cpu.[tid:0]: Reading integer reg integer[2] (2) as 0x7ffffffffffffd30.
5699000: system.cpu.[tid:0]: Setting integer register integer[26] (26) to 0.
5701000: system.cpu.[tid:0]: Reading integer reg integer[2] (2) as 0x7ffffffffffffd30.
5701000: system.cpu.[tid:0]: Setting integer register integer[2] (2) to 0x7ffffffffffffd90.
5703000: system.cpu.[tid:0]: Reading integer reg integer[1] (1) as 0x1041e.
5707000: system.cpu.[tid:0]: Setting integer register integer[15] (15) to 0x7a000.
5711000: system.cpu.[tid:0]: Reading integer reg integer[15] (15) as 0x7a000.
5713000: system.cpu.[tid:0]: Setting integer register integer[15] (15) to 0x7fffffffffffff78.
5717000: system.cpu.[tid:0]: Setting integer register integer[28] (28) to 0x7a000.
5721000: system.cpu.[tid:0]: Reading integer reg integer[28] (28) as 0x7a000.
5721000: system.cpu.[tid:0]: Setting integer register integer[28] (28) to 0x79f90.
5725000: system.cpu.[tid:0]: Reading integer reg integer[15] (15) as 0x7fffffffffffff78.
5727000: system.cpu.[tid:0]: Setting integer register integer[14] (14) to 0.
5731000: system.cpu.[tid:0]: Reading integer reg integer[15] (15) as 0x7fffffffffffff78.
5733000: system.cpu.[tid:0]: Setting integer register integer[10] (10) to 0.
5737000: system.cpu.[tid:0]: Reading integer reg integer[15] (15) as 0x7fffffffffffff78.
5739000: system.cpu.[tid:0]: Setting integer register integer[31] (31) to 0.
5743000: system.cpu.[tid:0]: Reading integer reg integer[15] (15) as 0x7fffffffffffff78.
5796000: system.cpu.[tid:0]: Setting integer register integer[12] (12) to 0x77.
5851000: system.cpu.[tid:0]: Reading integer reg integer[15] (15) as 0x7fffffffffffff78.
5853000: system.cpu.[tid:0]: Setting integer register integer[30] (30) to 0x2f.
5857000: system.cpu.[tid:0]: Reading integer reg integer[15] (15) as 0x7fffffffffffff78.
5859000: system.cpu.[tid:0]: Setting integer register integer[11] (11) to 0x2f.
5863000: system.cpu.[tid:0]: Reading integer reg integer[15] (15) as 0x7fffffffffffff78.
5865000: system.cpu.[tid:0]: Setting integer register integer[13] (13) to 0x6c.
5869000: system.cpu.[tid:0]: Reading integer reg integer[15] (15) as 0x7fffffffffffff78.
5871000: system.cpu.[tid:0]: Setting integer register integer[29] (29) to 0x68.
5875000: system.cpu.[tid:0]: Reading integer reg integer[15] (15) as 0x7fffffffffffff78.
[...]
43284000: system.cpu.[tid:0]: Reading integer reg integer[15] (15) as 0x16ba0.
43284000: system.cpu.[tid:0]: Setting integer register integer[1] (1) to 0x19640.
43337000: system.cpu.[tid:0]: Reading integer reg integer[2] (2) as 0x7ffffffffffffcf0.
43337000: system.cpu.[tid:0]: Setting integer register integer[2] (2) to 0x7ffffffffffffce0.
43343000: system.cpu.[tid:0]: Reading integer reg integer[2] (2) as 0x7ffffffffffffce0.
43343000: system.cpu.[tid:0]: Reading integer reg integer[8] (8) as 0x7a218.
43347000: system.cpu.[tid:0]: Reading integer reg integer[2] (2) as 0x7ffffffffffffce0.
43347000: system.cpu.[tid:0]: Reading integer reg integer[1] (1) as 0x19640.
43351000: system.cpu.[tid:0]: Reading integer reg integer[10] (10) as 0x7a218.
43351000: system.cpu.[tid:0]: Setting integer register integer[8] (8) to 0x7a218.
43353000: system.cpu.[tid:0]: Setting integer register integer[1] (1) to 0x16bac.
43406000: system.cpu.[tid:0]: Reading integer reg integer[2] (2) as 0x7ffffffffffffce0.
43406000: system.cpu.[tid:0]: Setting integer register integer[2] (2) to 0x7ffffffffffffcb0.
43412000: system.cpu.[tid:0]: Reading integer reg integer[2] (2) as 0x7ffffffffffffcb0.
43412000: system.cpu.[tid:0]: Reading integer reg integer[9] (9) as 0.
43416000: system.cpu.[tid:0]: Reading integer reg integer[10] (10) as 0x7a218.
43418000: system.cpu.[tid:0]: Setting integer register integer[9] (9) to 0x749d8.
43422000: system.cpu.[tid:0]: Setting integer register integer[15] (15) to 0x74000.
43477000: system.cpu.[tid:0]: Setting integer register integer[14] (14) to 0x75000.
43485000: system.cpu.[tid:0]: Reading integer reg integer[15] (15) as 0x74000.
43485000: system.cpu.[tid:0]: Setting integer register integer[15] (15) to 0x747e0.
43489000: system.cpu.[tid:0]: Reading integer reg integer[14] (14) as 0x75000.
43489000: system.cpu.[tid:0]: Setting integer register integer[14] (14) to 0x74dc8.
43491000: system.cpu.[tid:0]: Reading integer reg integer[2] (2) as 0x7ffffffffffffcb0.
43491000: system.cpu.[tid:0]: Reading integer reg integer[8] (8) as 0x7a218.
43495000: system.cpu.[tid:0]: Reading integer reg integer[2] (2) as 0x7ffffffffffffcb0.
43495000: system.cpu.[tid:0]: Reading integer reg integer[18] (18) as 0x1.
43499000: system.cpu.[tid:0]: Reading integer reg integer[2] (2) as 0x7ffffffffffffcb0.
43499000: system.cpu.[tid:0]: Reading integer reg integer[19] (19) as 0x5e8.
43503000: system.cpu.[tid:0]: Reading integer reg integer[14] (14) as 0x74dc8.
43503000: system.cpu.[tid:0]: Reading integer reg integer[15] (15) as 0x747e0.
43503000: system.cpu.[tid:0]: Setting integer register integer[14] (14) to 0x5e8.
43505000: system.cpu.[tid:0]: Reading integer reg integer[2] (2) as 0x7ffffffffffffcb0.
43505000: system.cpu.[tid:0]: Reading integer reg integer[1] (1) as 0x16bac.
43509000: system.cpu.[tid:0]: Reading integer reg integer[9] (9) as 0x749d8.
43509000: system.cpu.[tid:0]: Reading integer reg integer[15] (15) as 0x747e0.
43509000: system.cpu.[tid:0]: Setting integer register integer[15] (15) to 0x1f8.
43511000: system.cpu.[tid:0]: Reading integer reg integer[10] (10) as 0x7a218.
43511000: system.cpu.[tid:0]: Setting integer register integer[8] (8) to 0x7a218.
43513000: system.cpu.[tid:0]: Reading integer reg integer[11] (11) as 0.
43513000: system.cpu.[tid:0]: Setting integer register integer[19] (19) to 0.
43515000: system.cpu.[tid:0]: Reading integer reg integer[12] (12) as 0.
43515000: system.cpu.[tid:0]: Setting integer register integer[18] (18) to 0.
43519000: system.cpu.[tid:0]: Reading integer reg integer[15] (15) as 0x1f8.
43519000: system.cpu.[tid:0]: Reading integer reg integer[14] (14) as 0x5e8.
43521000: system.cpu.[tid:0]: Reading integer reg integer[9] (9) as 0x749d8.
43523000: system.cpu.[tid:0]: Setting integer register integer[15] (15) to 0x18406.
43525000: system.cpu.[tid:0]: Reading integer reg integer[8] (8) as 0x7a218.
43525000: system.cpu.[tid:0]: Setting integer register integer[10] (10) to 0x7a218.
43527000: system.cpu.[tid:0]: Reading integer reg integer[15] (15) as 0x18406.
43527000: system.cpu.[tid:0]: Setting integer register integer[1] (1) to 0x18fa8.
43580000: system.cpu.[tid:0]: Reading integer reg integer[10] (10) as 0x7a218.
43582000: system.cpu.[tid:0]: Setting integer register integer[12] (12) to 0x7f530.
43584000: system.cpu.[tid:0]: Reading integer reg integer[10] (10) as 0x7a218.
43586000: system.cpu.[tid:0]: Setting integer register integer[11] (11) to 0x7f530.
43588000: system.cpu.[tid:0]: Reading integer reg integer[2] (2) as 0x7ffffffffffffcb0.
43588000: system.cpu.[tid:0]: Setting integer register integer[2] (2) to 0x7ffffffffffffc80.
43590000: system.cpu.[tid:0]: Reading integer reg integer[2] (2) as 0x7ffffffffffffc80.
43590000: system.cpu.[tid:0]: Reading integer reg integer[8] (8) as 0x7a218.
43594000: system.cpu.[tid:0]: Reading integer reg integer[2] (2) as 0x7ffffffffffffc80.
43594000: system.cpu.[tid:0]: Reading integer reg integer[1] (1) as 0x18fa8.
43598000: system.cpu.[tid:0]: Reading integer reg integer[2] (2) as 0x7ffffffffffffc80.
43598000: system.cpu.[tid:0]: Reading integer reg integer[9] (9) as 0x749d8.
43602000: system.cpu.[tid:0]: Reading integer reg integer[10] (10) as 0x7a218.
43602000: system.cpu.[tid:0]: Setting integer register integer[8] (8) to 0x7a218.
43604000: system.cpu.[tid:0]: Reading integer reg integer[11] (11) as 0x7f530.
43604000: system.cpu.[tid:0]: Reading integer reg integer[12] (12) as 0x7f530.
43606000: system.cpu.[tid:0]: Reading integer reg integer[8] (8) as 0x7a218.
43608000: system.cpu.[tid:0]: Setting integer register integer[11] (11) to 0x7f530.
43610000: system.cpu.[tid:0]: Reading integer reg integer[8] (8) as 0x7a218.
43612000: system.cpu.[tid:0]: Setting integer register integer[15] (15) to 0x7f530.
43614000: system.cpu.[tid:0]: Reading integer reg integer[11] (11) as 0x7f530.
43614000: system.cpu.[tid:0]: Reading integer reg integer[15] (15) as 0x7f530.
43614000: system.cpu.[tid:0]: Setting integer register integer[11] (11) to 0.
43616000: system.cpu.[tid:0]: Reading integer reg integer[11] (11) as 0.
43669000: system.cpu.[tid:0]: Setting integer register integer[15] (15) to 0xffffffffffffffff.
43675000: system.cpu.[tid:0]: Reading integer reg integer[8] (8) as 0x7a218.
43675000: system.cpu.[tid:0]: Reading integer reg integer[15] (15) as 0xffffffffffffffff.
43679000: system.cpu.[tid:0]: Setting integer register integer[10] (10) to 0.
43681000: system.cpu.[tid:0]: Reading integer reg integer[2] (2) as 0x7ffffffffffffc80.
43683000: system.cpu.[tid:0]: Setting integer register integer[1] (1) to 0x18fa8.
43685000: system.cpu.[tid:0]: Reading integer reg integer[2] (2) as 0x7ffffffffffffc80.
43687000: system.cpu.[tid:0]: Setting integer register integer[8] (8) to 0x7a218.
43689000: system.cpu.[tid:0]: Reading integer reg integer[2] (2) as 0x7ffffffffffffc80.
43691000: system.cpu.[tid:0]: Setting integer register integer[9] (9) to 0x749d8.
43693000: system.cpu.[tid:0]: Reading integer reg integer[2] (2) as 0x7ffffffffffffc80.
43693000: system.cpu.[tid:0]: Setting integer register integer[2] (2) to 0x7ffffffffffffcb0.
43695000: system.cpu.[tid:0]: Reading integer reg integer[1] (1) as 0x18fa8.
43697000: system.cpu.[tid:0]: Setting integer register integer[15] (15) to 0xffffffffffffffff.
43701000: system.cpu.[tid:0]: Reading integer reg integer[10] (10) as 0.
43701000: system.cpu.[tid:0]: Reading integer reg integer[15] (15) as 0xffffffffffffffff.
43703000: system.cpu.[tid:0]: Reading integer reg integer[8] (8) as 0x7a218.
43705000: system.cpu.[tid:0]: Setting integer register integer[15] (15) to 0xfffffffffbad2a85.
43707000: system.cpu.[tid:0]: Reading integer reg integer[8] (8) as 0x7a218.
43709000: system.cpu.[tid:0]: Setting integer register integer[10] (10) to 0x7f530.
43713000: system.cpu.[tid:0]: Reading integer reg integer[19] (19) as 0.
43766000: system.cpu.[tid:0]: Reading integer reg integer[15] (15) as 0xfffffffffbad2a85.
43766000: system.cpu.[tid:0]: Setting integer register integer[14] (14) to 0xfffffffffbad2a87.
43772000: system.cpu.[tid:0]: Reading integer reg integer[8] (8) as 0x7a218.
43772000: system.cpu.[tid:0]: Reading integer reg integer[14] (14) as 0xfffffffffbad2a87.
43778000: system.cpu.[tid:0]: Reading integer reg integer[8] (8) as 0x7a218.
43778000: system.cpu.[tid:0]: Setting integer register integer[18] (18) to 0x7a29b.
43782000: system.cpu.[tid:0]: Reading integer reg integer[8] (8) as 0x7a218.
43782000: system.cpu.[tid:0]: Setting integer register integer[9] (9) to 0x7a29c.
43784000: system.cpu.[tid:0]: Reading integer reg integer[10] (10) as 0x7f530.
43786000: system.cpu.[tid:0]: Reading integer reg integer[15] (15) as 0xfffffffffbad2a85.
43786000: system.cpu.[tid:0]: Setting integer register integer[15] (15) to 0x1.
43788000: system.cpu.[tid:0]: Reading integer reg integer[15] (15) as 0x1.
43790000: system.cpu.[tid:0]: Reading integer reg integer[14] (14) as 0xfffffffffbad2a87.
43790000: system.cpu.[tid:0]: Setting integer register integer[14] (14) to 0xfffffffffbad2a87.
43792000: system.cpu.[tid:0]: Reading integer reg integer[8] (8) as 0x7a218.
43792000: system.cpu.[tid:0]: Reading integer reg integer[18] (18) as 0x7a29b.
43796000: system.cpu.[tid:0]: Reading integer reg integer[8] (8) as 0x7a218.
43796000: system.cpu.[tid:0]: Reading integer reg integer[9] (9) as 0x7a29c.
43800000: system.cpu.[tid:0]: Reading integer reg integer[8] (8) as 0x7a218.
43800000: system.cpu.[tid:0]: Reading integer reg integer[14] (14) as 0xfffffffffbad2a87.
43804000: system.cpu.[tid:0]: Reading integer reg integer[8] (8) as 0x7a218.
43808000: system.cpu.[tid:0]: Reading integer reg integer[8] (8) as 0x7a218.
43877000: system.cpu.[tid:0]: Reading integer reg integer[8] (8) as 0x7a218.
43881000: system.cpu.[tid:0]: Reading integer reg integer[8] (8) as 0x7a218.
43885000: system.cpu.[tid:0]: Reading integer reg integer[8] (8) as 0x7a218.
43889000: system.cpu.[tid:0]: Reading integer reg integer[8] (8) as 0x7a218.
43893000: system.cpu.[tid:0]: Reading integer reg integer[8] (8) as 0x7a218.
43893000: system.cpu.[tid:0]: Setting integer register integer[10] (10) to 0x7a218.
43895000: system.cpu.[tid:0]: Reading integer reg integer[2] (2) as 0x7ffffffffffffcb0.
43897000: system.cpu.[tid:0]: Setting integer register integer[1] (1) to 0x16bac.
43899000: system.cpu.[tid:0]: Reading integer reg integer[2] (2) as 0x7ffffffffffffcb0.
43901000: system.cpu.[tid:0]: Setting integer register integer[8] (8) to 0x7a218.
43903000: system.cpu.[tid:0]: Reading integer reg integer[2] (2) as 0x7ffffffffffffcb0.
43905000: system.cpu.[tid:0]: Setting integer register integer[9] (9) to 0.
43907000: system.cpu.[tid:0]: Reading integer reg integer[2] (2) as 0x7ffffffffffffcb0.
43909000: system.cpu.[tid:0]: Setting integer register integer[18] (18) to 0x1.
43911000: system.cpu.[tid:0]: Reading integer reg integer[2] (2) as 0x7ffffffffffffcb0.
43913000: system.cpu.[tid:0]: Setting integer register integer[19] (19) to 0x5e8.
43915000: system.cpu.[tid:0]: Reading integer reg integer[2] (2) as 0x7ffffffffffffcb0.
43915000: system.cpu.[tid:0]: Setting integer register integer[2] (2) to 0x7ffffffffffffce0.
43917000: system.cpu.[tid:0]: Reading integer reg integer[1] (1) as 0x16bac.
43919000: system.cpu.[tid:0]: Reading integer reg integer[10] (10) as 0x7a218.
43921000: system.cpu.[tid:0]: Reading integer reg integer[8] (8) as 0x7a218.
43923000: system.cpu.[tid:0]: Setting integer register integer[15] (15) to 0x7a29b.
43925000: system.cpu.[tid:0]: Reading integer reg integer[8] (8) as 0x7a218.
43925000: system.cpu.[tid:0]: Setting integer register integer[10] (10) to 0x7a218.
43927000: system.cpu.[tid:0]: Reading integer reg integer[8] (8) as 0x7a218.
43927000: system.cpu.[tid:0]: Reading integer reg integer[15] (15) as 0x7a29b.
43931000: system.cpu.[tid:0]: Reading integer reg integer[8] (8) as 0x7a218.
43931000: system.cpu.[tid:0]: Reading integer reg integer[15] (15) as 0x7a29b.
43935000: system.cpu.[tid:0]: Reading integer reg integer[8] (8) as 0x7a218.
43935000: system.cpu.[tid:0]: Reading integer reg integer[15] (15) as 0x7a29b.
43939000: system.cpu.[tid:0]: Reading integer reg integer[8] (8) as 0x7a218.
43939000: system.cpu.[tid:0]: Reading integer reg integer[15] (15) as 0x7a29b.
43943000: system.cpu.[tid:0]: Reading integer reg integer[8] (8) as 0x7a218.
43943000: system.cpu.[tid:0]: Reading integer reg integer[15] (15) as 0x7a29b.
43947000: system.cpu.[tid:0]: Reading integer reg integer[8] (8) as 0x7a218.
43947000: system.cpu.[tid:0]: Reading integer reg integer[15] (15) as 0x7a29b.
43951000: system.cpu.[tid:0]: Reading integer reg integer[2] (2) as 0x7ffffffffffffce0.
43953000: system.cpu.[tid:0]: Setting integer register integer[1] (1) to 0x19640.
44006000: system.cpu.[tid:0]: Reading integer reg integer[2] (2) as 0x7ffffffffffffce0.
44008000: system.cpu.[tid:0]: Setting integer register integer[8] (8) to 0x7a218.
44010000: system.cpu.[tid:0]: Reading integer reg integer[2] (2) as 0x7ffffffffffffce0.
44010000: system.cpu.[tid:0]: Setting integer register integer[2] (2) to 0x7ffffffffffffcf0.
44012000: system.cpu.[tid:0]: Reading integer reg integer[1] (1) as 0x19640.
44065000: system.cpu.[tid:0]: Reading integer reg integer[8] (8) as 0x7a218.
44067000: system.cpu.[tid:0]: Setting integer register integer[15] (15) to 0xffffffffffffffff.
44069000: system.cpu.[tid:0]: Reading integer reg integer[15] (15) as 0xffffffffffffffff.
44071000: system.cpu.[tid:0]: Setting integer register integer[15] (15) to 0x2.
44075000: system.cpu.[tid:0]: Reading integer reg integer[9] (9) as 0.
44075000: system.cpu.[tid:0]: Reading integer reg integer[15] (15) as 0x2.
44077000: system.cpu.[tid:0]: Reading integer reg integer[8] (8) as 0x7a218.
44079000: system.cpu.[tid:0]: Setting integer register integer[10] (10) to 0x7c7b0.
44081000: system.cpu.[tid:0]: Reading integer reg integer[10] (10) as 0x7c7b0.
44083000: system.cpu.[tid:0]: Reading integer reg integer[10] (10) as 0x7c7b0.
44085000: system.cpu.[tid:0]: Setting integer register integer[15] (15) to 0x1.
44087000: system.cpu.[tid:0]: Reading integer reg integer[15] (15) as 0x1.
44087000: system.cpu.[tid:0]: Setting integer register integer[14] (14) to 0.
44089000: system.cpu.[tid:0]: Reading integer reg integer[10] (10) as 0x7c7b0.
44089000: system.cpu.[tid:0]: Reading integer reg integer[14] (14) as 0.
44093000: system.cpu.[tid:0]: Reading integer reg integer[14] (14) as 0.
44095000: system.cpu.[tid:0]: Reading integer reg integer[10] (10) as 0x7c7b0.
44099000: system.cpu.[tid:0]: Reading integer reg integer[10] (10) as 0x7c7b0.
44101000: system.cpu.[tid:0]: Setting integer register integer[15] (15) to 0x1.
44103000: system.cpu.[tid:0]: Setting integer register integer[14] (14) to 0x1.
44105000: system.cpu.[tid:0]: Reading integer reg integer[15] (15) as 0x1.
44105000: system.cpu.[tid:0]: Setting integer register integer[15] (15) to 0x1.
44107000: system.cpu.[tid:0]: Reading integer reg integer[14] (14) as 0x1.
44107000: system.cpu.[tid:0]: Reading integer reg integer[15] (15) as 0x1.
44109000: system.cpu.[tid:0]: Setting integer register integer[15] (15) to 0xffffffffffffffff.
44111000: system.cpu.[tid:0]: Reading integer reg integer[8] (8) as 0x7a218.
44111000: system.cpu.[tid:0]: Reading integer reg integer[15] (15) as 0xffffffffffffffff.
44115000: system.cpu.[tid:0]: Reading integer reg integer[8] (8) as 0x7a218.
44117000: system.cpu.[tid:0]: Setting integer register integer[8] (8) to 0x7a430.
44119000: system.cpu.[tid:0]: Reading integer reg integer[8] (8) as 0x7a430.
44121000: system.cpu.[tid:0]: Reading integer reg integer[8] (8) as 0x7a430.
44174000: system.cpu.[tid:0]: Setting integer register integer[9] (9) to 0xfffffffffbad2088.
44176000: system.cpu.[tid:0]: Reading integer reg integer[9] (9) as 0xfffffffffbad2088.
44176000: system.cpu.[tid:0]: Setting integer register integer[9] (9) to 0.
44178000: system.cpu.[tid:0]: Reading integer reg integer[9] (9) as 0.
44178000: system.cpu.[tid:0]: Setting integer register integer[9] (9) to 0.
44180000: system.cpu.[tid:0]: Reading integer reg integer[9] (9) as 0.
44182000: system.cpu.[tid:0]: Reading integer reg integer[8] (8) as 0x7a430.
44184000: system.cpu.[tid:0]: Setting integer register integer[15] (15) to 0.
44186000: system.cpu.[tid:0]: Setting integer register integer[24] (24) to 0x1.
44188000: system.cpu.[tid:0]: Reading integer reg integer[15] (15) as 0.
44190000: system.cpu.[tid:0]: Setting integer register integer[15] (15) to 0xffffffffffffffff.
44192000: system.cpu.[tid:0]: Reading integer reg integer[8] (8) as 0x7a430.
44192000: system.cpu.[tid:0]: Reading integer reg integer[15] (15) as 0xffffffffffffffff.
44196000: system.cpu.[tid:0]: Reading integer reg integer[8] (8) as 0x7a430.
44198000: system.cpu.[tid:0]: Setting integer register integer[8] (8) to 0.
44200000: system.cpu.[tid:0]: Reading integer reg integer[8] (8) as 0.
44202000: system.cpu.[tid:0]: Reading integer reg integer[2] (2) as 0x7ffffffffffffcf0.
44204000: system.cpu.[tid:0]: Setting integer register integer[1] (1) to 0x14ac6.
44206000: system.cpu.[tid:0]: Reading integer reg integer[2] (2) as 0x7ffffffffffffcf0.
44208000: system.cpu.[tid:0]: Setting integer register integer[8] (8) to 0x74dd0.
44210000: system.cpu.[tid:0]: Reading integer reg integer[21] (21) as 0.
44210000: system.cpu.[tid:0]: Setting integer register integer[10] (10) to 0.
44212000: system.cpu.[tid:0]: Reading integer reg integer[2] (2) as 0x7ffffffffffffcf0.
44214000: system.cpu.[tid:0]: Setting integer register integer[9] (9) to 0x74dd0.
44216000: system.cpu.[tid:0]: Reading integer reg integer[2] (2) as 0x7ffffffffffffcf0.
44218000: system.cpu.[tid:0]: Setting integer register integer[18] (18) to 0.
44220000: system.cpu.[tid:0]: Reading integer reg integer[2] (2) as 0x7ffffffffffffcf0.
44222000: system.cpu.[tid:0]: Setting integer register integer[19] (19) to 0x2.
44224000: system.cpu.[tid:0]: Reading integer reg integer[2] (2) as 0x7ffffffffffffcf0.
44226000: system.cpu.[tid:0]: Setting integer register integer[20] (20) to 0x7b9f0.
44228000: system.cpu.[tid:0]: Reading integer reg integer[2] (2) as 0x7ffffffffffffcf0.
44230000: system.cpu.[tid:0]: Setting integer register integer[21] (21) to 0x1.
44232000: system.cpu.[tid:0]: Reading integer reg integer[2] (2) as 0x7ffffffffffffcf0.
44234000: system.cpu.[tid:0]: Setting integer register integer[22] (22) to 0x7c380.
44236000: system.cpu.[tid:0]: Reading integer reg integer[2] (2) as 0x7ffffffffffffcf0.
44238000: system.cpu.[tid:0]: Setting integer register integer[23] (23) to 0.
44240000: system.cpu.[tid:0]: Reading integer reg integer[2] (2) as 0x7ffffffffffffcf0.
44242000: system.cpu.[tid:0]: Setting integer register integer[24] (24) to 0.
44244000: system.cpu.[tid:0]: Reading integer reg integer[2] (2) as 0x7ffffffffffffcf0.
44244000: system.cpu.[tid:0]: Setting integer register integer[2] (2) to 0x7ffffffffffffd40.
44246000: system.cpu.[tid:0]: Reading integer reg integer[1] (1) as 0x14ac6.
44250000: system.cpu.[tid:0]: Reading integer reg integer[8] (8) as 0x74dd0.
44250000: system.cpu.[tid:0]: Reading integer reg integer[9] (9) as 0x74dd0.
44252000: system.cpu.[tid:0]: Reading integer reg integer[18] (18) as 0.
44252000: system.cpu.[tid:0]: Setting integer register integer[10] (10) to 0.
44254000: system.cpu.[tid:0]: Setting integer register integer[1] (1) to 0x14ad0.
44307000: system.cpu.[tid:0]: Reading integer reg integer[10] (10) as 0.
44307000: system.cpu.[tid:0]: Setting integer register integer[15] (15) to 0.
44366000: system.cpu.[tid:0]: Setting integer register integer[17] (17) to 0x5e.
44374000: system.cpu.[tid:0]: Reading integer reg integer[17] (17) as 0x5e.
44374000: system.cpu.[tid:0]: Reading integer reg integer[10] (10) as 0.
44374000: system.cpu.[tid:0]: Setting integer register integer[10] (10) to 0.
Exiting @ tick 44374000 because exiting with last active thread context
